VeraChem MOL file


 17 16  0  0  0  0  0  0  0  0999 V2000     
   19.7725   19.0786   25.2792 C   0  0  0  0  0  0  0  0  0  0  0  0
   19.3199   19.9203   26.0304 O   0  5  0  0  0  0  0  0  0  0  0  0
   20.4459   18.1418   25.6656 O   0  0  0  0  0  0  0  0  0  0  0  0
   19.4753   19.2209   23.8281 C   0  0  0  0  0  0  0  0  0  0  0  0
   18.8686   20.0796   23.5499 H   0  0  0  0  0  0  0  0  0  0  0  0
   19.9141   18.3610   22.8810 C   0  0  0  0  0  0  0  0  0  0  0  0
   20.5246   17.4987   23.1484 H   0  0  0  0  0  0  0  0  0  0  0  0
   19.6091   18.5141   21.4070 C   0  0  0  0  0  0  0  0  0  0  0  0
   18.5796   18.8728   21.2717 H   0  0  0  0  0  0  0  0  0  0  0  0
   19.6653   17.5333   20.9159 H   0  0  0  0  0  0  0  0  0  0  0  0
   20.5932   19.4884   20.7278 C   0  0  0  0  0  0  0  0  0  0  0  0
   20.5352   20.4716   21.2153 H   0  0  0  0  0  0  0  0  0  0  0  0
   21.6220   19.1265   20.8626 H   0  0  0  0  0  0  0  0  0  0  0  0
   20.2949   19.6428   19.2229 C   0  0  0  0  0  0  0  0  0  0  0  0
   20.3774   18.6782   18.7050 H   0  0  0  0  0  0  0  0  0  0  0  0
   19.2815   20.0333   19.0613 H   0  0  0  0  0  0  0  0  0  0  0  0
   21.0045   20.3391   18.7574 H   0  0  0  0  0  0  0  0  0  0  0  0
  1  2  1  0  0  0  0
  1  3  2  0  0  0  0
  1  4  1  0  0  0  0
  4  5  1  0  0  0  0
  4  6  2  0  0  0  0
  6  7  1  0  0  0  0
  6  8  1  0  0  0  0
  8  9  1  0  0  0  0
  8 10  1  0  0  0  0
  8 11  1  0  0  0  0
 11 12  1  0  0  0  0
 11 13  1  0  0  0  0
 11 14  1  0  0  0  0
 14 15  1  0  0  0  0
 14 16  1  0  0  0  0
 14 17  1  0  0  0  0
M  END
> <VConfSearch Rank>
1

> <Conf_Id>
36

> <Delta U+W>
0.000

> <U+W>
-53.409

> <U>
9.048

> <W>
-62.457

> <W(PB)>
-64.540

> <W(SA)>
2.084

> <Valence>
2.652

> <Coulomb>
5.578

> <VdW>
0.818

> <VdW6>
-4.534

> <VdW12>
5.352

> <Bond>
0.063

> <Angle>
2.579

> <Pdih>
0.010

> <Idih>
0.000

> <Tether>
0.000

$$$$
VeraChem MOL file


 17 16  0  0  0  0  0  0  0  0999 V2000     
   19.9275   18.8980   25.2799 C   0  0  0  0  0  0  0  0  0  0  0  0
   19.1023   19.7077   25.6590 O   0  5  0  0  0  0  0  0  0  0  0  0
   20.6875   18.3262   26.0371 O   0  0  0  0  0  0  0  0  0  0  0  0
   20.0292   18.5756   23.8308 C   0  0  0  0  0  0  0  0  0  0  0  0
   20.7868   17.8441   23.5593 H   0  0  0  0  0  0  0  0  0  0  0  0
   19.2499   19.1354   22.8777 C   0  0  0  0  0  0  0  0  0  0  0  0
   18.4891   19.8710   23.1383 H   0  0  0  0  0  0  0  0  0  0  0  0
   19.3609   18.8034   21.4057 C   0  0  0  0  0  0  0  0  0  0  0  0
   18.4023   19.0064   20.9095 H   0  0  0  0  0  0  0  0  0  0  0  0
   19.5587   17.7306   21.2766 H   0  0  0  0  0  0  0  0  0  0  0  0
   20.4771   19.6238   20.7273 C   0  0  0  0  0  0  0  0  0  0  0  0
   20.2760   20.6964   20.8559 H   0  0  0  0  0  0  0  0  0  0  0  0
   21.4377   19.4187   21.2200 H   0  0  0  0  0  0  0  0  0  0  0  0
   20.5906   19.2978   19.2245 C   0  0  0  0  0  0  0  0  0  0  0  0
   19.6522   19.5240   18.7014 H   0  0  0  0  0  0  0  0  0  0  0  0
   21.3891   19.8905   18.7595 H   0  0  0  0  0  0  0  0  0  0  0  0
   20.8225   18.2360   19.0692 H   0  0  0  0  0  0  0  0  0  0  0  0
  1  2  1  0  0  0  0
  1  3  2  0  0  0  0
  1  4  1  0  0  0  0
  4  5  1  0  0  0  0
  4  6  2  0  0  0  0
  6  7  1  0  0  0  0
  6  8  1  0  0  0  0
  8  9  1  0  0  0  0
  8 10  1  0  0  0  0
  8 11  1  0  0  0  0
 11 12  1  0  0  0  0
 11 13  1  0  0  0  0
 11 14  1  0  0  0  0
 14 15  1  0  0  0  0
 14 16  1  0  0  0  0
 14 17  1  0  0  0  0
M  END
> <VConfSearch Rank>
2

> <Conf_Id>
1

> <Delta U+W>
0.030

> <U+W>
-53.378

> <U>
9.048

> <W>
-62.426

> <W(PB)>
-64.506

> <W(SA)>
2.080

> <Valence>
2.652

> <Coulomb>
5.578

> <VdW>
0.818

> <VdW6>
-4.535

> <VdW12>
5.352

> <Bond>
0.063

> <Angle>
2.579

> <Pdih>
0.010

> <Idih>
0.000

> <Tether>
0.000

$$$$
VeraChem MOL file


 17 16  0  0  0  0  0  0  0  0999 V2000     
   19.6119   18.9989   25.1046 C   0  0  0  0  0  0  0  0  0  0  0  0
   20.0496   20.0908   25.4154 O   0  5  0  0  0  0  0  0  0  0  0  0
   18.9305   18.3241   25.8517 O   0  0  0  0  0  0  0  0  0  0  0  0
   19.9131   18.4421   23.7580 C   0  0  0  0  0  0  0  0  0  0  0  0
   19.4925   17.4621   23.5446 H   0  0  0  0  0  0  0  0  0  0  0  0
   20.6558   19.0823   22.8266 C   0  0  0  0  0  0  0  0  0  0  0  0
   21.0791   20.0660   23.0286 H   0  0  0  0  0  0  0  0  0  0  0  0
   20.9549   18.5109   21.4566 C   0  0  0  0  0  0  0  0  0  0  0  0
   21.1696   17.4372   21.5441 H   0  0  0  0  0  0  0  0  0  0  0  0
   21.8648   18.9729   21.0504 H   0  0  0  0  0  0  0  0  0  0  0  0
   19.7866   18.7145   20.4671 C   0  0  0  0  0  0  0  0  0  0  0  0
   20.0153   18.1909   19.5286 H   0  0  0  0  0  0  0  0  0  0  0  0
   18.8749   18.2522   20.8702 H   0  0  0  0  0  0  0  0  0  0  0  0
   19.5227   20.2045   20.1621 C   0  0  0  0  0  0  0  0  0  0  0  0
   20.4178   20.6846   19.7457 H   0  0  0  0  0  0  0  0  0  0  0  0
   18.7103   20.3108   19.4316 H   0  0  0  0  0  0  0  0  0  0  0  0
   19.2322   20.7492   21.0699 H   0  0  0  0  0  0  0  0  0  0  0  0
  1  2  1  0  0  0  0
  1  3  2  0  0  0  0
  1  4  1  0  0  0  0
  4  5  1  0  0  0  0
  4  6  2  0  0  0  0
  6  7  1  0  0  0  0
  6  8  1  0  0  0  0
  8  9  1  0  0  0  0
  8 10  1  0  0  0  0
  8 11  1  0  0  0  0
 11 12  1  0  0  0  0
 11 13  1  0  0  0  0
 11 14  1  0  0  0  0
 14 15  1  0  0  0  0
 14 16  1  0  0  0  0
 14 17  1  0  0  0  0
M  END
> <VConfSearch Rank>
3

> <Conf_Id>
3

> <Delta U+W>
0.531

> <U+W>
-52.878

> <U>
10.067

> <W>
-62.945

> <W(PB)>
-64.982

> <W(SA)>
2.037

> <Valence>
2.779

> <Coulomb>
6.474

> <VdW>
0.815

> <VdW6>
-5.088

> <VdW12>
5.902

> <Bond>
0.078

> <Angle>
2.651

> <Pdih>
0.050

> <Idih>
0.000

> <Tether>
0.000

$$$$
VeraChem MOL file


 17 16  0  0  0  0  0  0  0  0999 V2000     
   19.8305   19.1916   25.0913 C   0  0  0  0  0  0  0  0  0  0  0  0
   19.3148   20.0196   25.8167 O   0  5  0  0  0  0  0  0  0  0  0  0
   20.6953   18.4258   25.4735 O   0  0  0  0  0  0  0  0  0  0  0  0
   19.3646   19.1293   23.6795 C   0  0  0  0  0  0  0  0  0  0  0  0
   18.5901   19.8414   23.4042 H   0  0  0  0  0  0  0  0  0  0  0  0
   19.8507   18.2611   22.7631 C   0  0  0  0  0  0  0  0  0  0  0  0
   20.6294   17.5468   23.0296 H   0  0  0  0  0  0  0  0  0  0  0  0
   19.3763   18.2020   21.3259 C   0  0  0  0  0  0  0  0  0  0  0  0
   18.4114   18.7153   21.2160 H   0  0  0  0  0  0  0  0  0  0  0  0
   19.1977   17.1541   21.0503 H   0  0  0  0  0  0  0  0  0  0  0  0
   20.4022   18.8100   20.3445 C   0  0  0  0  0  0  0  0  0  0  0  0
   21.3686   18.2988   20.4557 H   0  0  0  0  0  0  0  0  0  0  0  0
   20.0662   18.6255   19.3148 H   0  0  0  0  0  0  0  0  0  0  0  0
   20.5905   20.3286   20.5475 C   0  0  0  0  0  0  0  0  0  0  0  0
   20.9879   20.5484   21.5469 H   0  0  0  0  0  0  0  0  0  0  0  0
   21.2952   20.7324   19.8092 H   0  0  0  0  0  0  0  0  0  0  0  0
   19.6374   20.8611   20.4333 H   0  0  0  0  0  0  0  0  0  0  0  0
  1  2  1  0  0  0  0
  1  3  2  0  0  0  0
  1  4  1  0  0  0  0
  4  5  1  0  0  0  0
  4  6  2  0  0  0  0
  6  7  1  0  0  0  0
  6  8  1  0  0  0  0
  8  9  1  0  0  0  0
  8 10  1  0  0  0  0
  8 11  1  0  0  0  0
 11 12  1  0  0  0  0
 11 13  1  0  0  0  0
 11 14  1  0  0  0  0
 14 15  1  0  0  0  0
 14 16  1  0  0  0  0
 14 17  1  0  0  0  0
M  END
> <VConfSearch Rank>
4

> <Conf_Id>
45

> <Delta U+W>
0.562

> <U+W>
-52.846

> <U>
10.243

> <W>
-63.089

> <W(PB)>
-65.116

> <W(SA)>
2.026

> <Valence>
2.822

> <Coulomb>
6.637

> <VdW>
0.785

> <VdW6>
-5.216

> <VdW12>
6.001

> <Bond>
0.080

> <Angle>
2.678

> <Pdih>
0.064

> <Idih>
0.000

> <Tether>
0.000

$$$$
VeraChem MOL file


 17 16  0  0  0  0  0  0  0  0999 V2000     
   20.4387   16.5817   24.0925 C   0  0  0  0  0  0  0  0  0  0  0  0
   20.2004   15.3977   23.9543 O   0  5  0  0  0  0  0  0  0  0  0  0
   20.6839   17.0845   25.1730 O   0  0  0  0  0  0  0  0  0  0  0  0
   20.4253   17.4327   22.8720 C   0  0  0  0  0  0  0  0  0  0  0  0
   20.1992   16.9212   21.9392 H   0  0  0  0  0  0  0  0  0  0  0  0
   20.6708   18.7627   22.8777 C   0  0  0  0  0  0  0  0  0  0  0  0
   20.8960   19.2857   23.8070 H   0  0  0  0  0  0  0  0  0  0  0  0
   20.6531   19.6214   21.6321 C   0  0  0  0  0  0  0  0  0  0  0  0
   21.0900   19.0691   20.7890 H   0  0  0  0  0  0  0  0  0  0  0  0
   21.2847   20.5066   21.7867 H   0  0  0  0  0  0  0  0  0  0  0  0
   19.2196   20.0659   21.2764 C   0  0  0  0  0  0  0  0  0  0  0  0
   18.5873   19.1813   21.1173 H   0  0  0  0  0  0  0  0  0  0  0  0
   18.7855   20.6198   22.1204 H   0  0  0  0  0  0  0  0  0  0  0  0
   19.1940   20.9496   20.0130 C   0  0  0  0  0  0  0  0  0  0  0  0
   19.7936   21.8580   20.1567 H   0  0  0  0  0  0  0  0  0  0  0  0
   19.5948   20.4076   19.1464 H   0  0  0  0  0  0  0  0  0  0  0  0
   18.1668   21.2556   19.7759 H   0  0  0  0  0  0  0  0  0  0  0  0
  1  2  1  0  0  0  0
  1  3  2  0  0  0  0
  1  4  1  0  0  0  0
  4  5  1  0  0  0  0
  4  6  2  0  0  0  0
  6  7  1  0  0  0  0
  6  8  1  0  0  0  0
  8  9  1  0  0  0  0
  8 10  1  0  0  0  0
  8 11  1  0  0  0  0
 11 12  1  0  0  0  0
 11 13  1  0  0  0  0
 11 14  1  0  0  0  0
 14 15  1  0  0  0  0
 14 16  1  0  0  0  0
 14 17  1  0  0  0  0
M  END
> <VConfSearch Rank>
5

> <Conf_Id>
36

> <Delta U+W>
0.000

> <U+W>
-53.409

> <U>
9.048

> <W>
-62.457

> <W(PB)>
-64.540

> <W(SA)>
2.084

> <Valence>
2.652

> <Coulomb>
5.578

> <VdW>
0.818

> <VdW6>
-4.534

> <VdW12>
5.352

> <Bond>
0.063

> <Angle>
2.579

> <Pdih>
0.010

> <Idih>
0.000

> <Tether>
0.000

$$$$
VeraChem MOL file


 17 16  0  0  0  0  0  0  0  0999 V2000     
   21.6536   21.3365   23.8261 C   0  0  0  0  0  0  0  0  0  0  0  0
   20.8148   21.9072   24.4977 O   0  5  0  0  0  0  0  0  0  0  0  0
   22.8081   21.7104   23.7546 O   0  0  0  0  0  0  0  0  0  0  0  0
   21.2741   20.1247   23.0504 C   0  0  0  0  0  0  0  0  0  0  0  0
   22.0708   19.6629   22.4716 H   0  0  0  0  0  0  0  0  0  0  0  0
   20.0283   19.5985   23.0360 C   0  0  0  0  0  0  0  0  0  0  0  0
   19.2221   20.0544   23.6105 H   0  0  0  0  0  0  0  0  0  0  0  0
   19.6502   18.3668   22.2429 C   0  0  0  0  0  0  0  0  0  0  0  0
   18.7778   17.8853   22.7048 H   0  0  0  0  0  0  0  0  0  0  0  0
   20.4668   17.6327   22.2771 H   0  0  0  0  0  0  0  0  0  0  0  0
   19.3287   18.7196   20.7762 C   0  0  0  0  0  0  0  0  0  0  0  0
   18.5102   19.4522   20.7445 H   0  0  0  0  0  0  0  0  0  0  0  0
   20.2021   19.1978   20.3113 H   0  0  0  0  0  0  0  0  0  0  0  0
   18.9333   17.4706   19.9631 C   0  0  0  0  0  0  0  0  0  0  0  0
   18.0423   16.9905   20.3886 H   0  0  0  0  0  0  0  0  0  0  0  0
   18.7084   17.7412   18.9233 H   0  0  0  0  0  0  0  0  0  0  0  0
   19.7478   16.7344   19.9531 H   0  0  0  0  0  0  0  0  0  0  0  0
  1  2  1  0  0  0  0
  1  3  2  0  0  0  0
  1  4  1  0  0  0  0
  4  5  1  0  0  0  0
  4  6  2  0  0  0  0
  6  7  1  0  0  0  0
  6  8  1  0  0  0  0
  8  9  1  0  0  0  0
  8 10  1  0  0  0  0
  8 11  1  0  0  0  0
 11 12  1  0  0  0  0
 11 13  1  0  0  0  0
 11 14  1  0  0  0  0
 14 15  1  0  0  0  0
 14 16  1  0  0  0  0
 14 17  1  0  0  0  0
M  END
> <VConfSearch Rank>
6

> <Conf_Id>
1

> <Delta U+W>
0.030

> <U+W>
-53.378

> <U>
9.048

> <W>
-62.426

> <W(PB)>
-64.506

> <W(SA)>
2.080

> <Valence>
2.652

> <Coulomb>
5.578

> <VdW>
0.818

> <VdW6>
-4.535

> <VdW12>
5.352

> <Bond>
0.063

> <Angle>
2.579

> <Pdih>
0.010

> <Idih>
0.000

> <Tether>
0.000

$$$$
VeraChem MOL file


 17 16  0  0  0  0  0  0  0  0999 V2000     
   18.4557   21.5127   23.1385 C   0  0  0  0  0  0  0  0  0  0  0  0
   19.3747   22.2685   23.3928 O   0  5  0  0  0  0  0  0  0  0  0  0
   17.2995   21.8810   23.0649 O   0  0  0  0  0  0  0  0  0  0  0  0
   18.7333   20.0693   22.9071 C   0  0  0  0  0  0  0  0  0  0  0  0
   17.8679   19.4490   22.6855 H   0  0  0  0  0  0  0  0  0  0  0  0
   19.9691   19.5222   22.9561 C   0  0  0  0  0  0  0  0  0  0  0  0
   20.8435   20.1350   23.1739 H   0  0  0  0  0  0  0  0  0  0  0  0
   20.2445   18.0527   22.7155 C   0  0  0  0  0  0  0  0  0  0  0  0
   19.4644   17.4481   23.1978 H   0  0  0  0  0  0  0  0  0  0  0  0
   21.1916   17.7677   23.1930 H   0  0  0  0  0  0  0  0  0  0  0  0
   20.2985   17.7034   21.2120 C   0  0  0  0  0  0  0  0  0  0  0  0
   20.3945   16.6147   21.0994 H   0  0  0  0  0  0  0  0  0  0  0  0
   19.3516   17.9863   20.7317 H   0  0  0  0  0  0  0  0  0  0  0  0
   21.4749   18.3912   20.4870 C   0  0  0  0  0  0  0  0  0  0  0  0
   22.4340   18.1127   20.9428 H   0  0  0  0  0  0  0  0  0  0  0  0
   21.5032   18.0952   19.4303 H   0  0  0  0  0  0  0  0  0  0  0  0
   21.3807   19.4842   20.5276 H   0  0  0  0  0  0  0  0  0  0  0  0
  1  2  1  0  0  0  0
  1  3  2  0  0  0  0
  1  4  1  0  0  0  0
  4  5  1  0  0  0  0
  4  6  2  0  0  0  0
  6  7  1  0  0  0  0
  6  8  1  0  0  0  0
  8  9  1  0  0  0  0
  8 10  1  0  0  0  0
  8 11  1  0  0  0  0
 11 12  1  0  0  0  0
 11 13  1  0  0  0  0
 11 14  1  0  0  0  0
 14 15  1  0  0  0  0
 14 16  1  0  0  0  0
 14 17  1  0  0  0  0
M  END
> <VConfSearch Rank>
7

> <Conf_Id>
3

> <Delta U+W>
0.531

> <U+W>
-52.878

> <U>
10.067

> <W>
-62.945

> <W(PB)>
-64.982

> <W(SA)>
2.037

> <Valence>
2.779

> <Coulomb>
6.474

> <VdW>
0.815

> <VdW6>
-5.088

> <VdW12>
5.902

> <Bond>
0.078

> <Angle>
2.651

> <Pdih>
0.050

> <Idih>
0.000

> <Tether>
0.000

$$$$
VeraChem MOL file


 17 16  0  0  0  0  0  0  0  0999 V2000     
   22.3811   18.8394   23.8852 C   0  0  0  0  0  0  0  0  0  0  0  0
   22.4331   18.7519   25.0966 O   0  5  0  0  0  0  0  0  0  0  0  0
   23.3267   19.1960   23.2076 O   0  0  0  0  0  0  0  0  0  0  0  0
   21.0950   18.4864   23.2252 C   0  0  0  0  0  0  0  0  0  0  0  0
   20.2914   18.1759   23.8889 H   0  0  0  0  0  0  0  0  0  0  0  0
   20.8944   18.5398   21.8886 C   0  0  0  0  0  0  0  0  0  0  0  0
   21.6930   18.8533   21.2168 H   0  0  0  0  0  0  0  0  0  0  0  0
   19.5831   18.1825   21.2199 C   0  0  0  0  0  0  0  0  0  0  0  0
   18.9483   17.5994   21.9010 H   0  0  0  0  0  0  0  0  0  0  0  0
   19.7855   17.5316   20.3590 H   0  0  0  0  0  0  0  0  0  0  0  0
   18.8136   19.4304   20.7343 C   0  0  0  0  0  0  0  0  0  0  0  0
   19.4489   20.0157   20.0550 H   0  0  0  0  0  0  0  0  0  0  0  0
   17.9415   19.1084   20.1488 H   0  0  0  0  0  0  0  0  0  0  0  0
   18.3355   20.3239   21.8988 C   0  0  0  0  0  0  0  0  0  0  0  0
   19.1857   20.7184   22.4703 H   0  0  0  0  0  0  0  0  0  0  0  0
   17.7603   21.1781   21.5189 H   0  0  0  0  0  0  0  0  0  0  0  0
   17.6920   19.7606   22.5870 H   0  0  0  0  0  0  0  0  0  0  0  0
  1  2  1  0  0  0  0
  1  3  2  0  0  0  0
  1  4  1  0  0  0  0
  4  5  1  0  0  0  0
  4  6  2  0  0  0  0
  6  7  1  0  0  0  0
  6  8  1  0  0  0  0
  8  9  1  0  0  0  0
  8 10  1  0  0  0  0
  8 11  1  0  0  0  0
 11 12  1  0  0  0  0
 11 13  1  0  0  0  0
 11 14  1  0  0  0  0
 14 15  1  0  0  0  0
 14 16  1  0  0  0  0
 14 17  1  0  0  0  0
M  END
> <VConfSearch Rank>
8

> <Conf_Id>
45

> <Delta U+W>
0.562

> <U+W>
-52.846

> <U>
10.243

> <W>
-63.089

> <W(PB)>
-65.116

> <W(SA)>
2.026

> <Valence>
2.822

> <Coulomb>
6.637

> <VdW>
0.785

> <VdW6>
-5.216

> <VdW12>
6.001

> <Bond>
0.080

> <Angle>
2.678

> <Pdih>
0.064

> <Idih>
0.000

> <Tether>
0.000

$$$$
VeraChem MOL file


 17 16  0  0  0  0  0  0  0  0999 V2000     
   20.7562   20.6989   24.7937 C   0  0  0  0  0  0  0  0  0  0  0  0
   21.7942   20.6870   25.4263 O   0  5  0  0  0  0  0  0  0  0  0  0
   19.7128   21.1332   25.2444 O   0  0  0  0  0  0  0  0  0  0  0  0
   20.7885   20.1543   23.4093 C   0  0  0  0  0  0  0  0  0  0  0  0
   21.7519   19.7823   23.0681 H   0  0  0  0  0  0  0  0  0  0  0  0
   19.7108   20.1037   22.5939 C   0  0  0  0  0  0  0  0  0  0  0  0
   18.7402   20.4715   22.9265 H   0  0  0  0  0  0  0  0  0  0  0  0
   19.7517   19.5462   21.1879 C   0  0  0  0  0  0  0  0  0  0  0  0
   20.6945   19.8279   20.6995 H   0  0  0  0  0  0  0  0  0  0  0  0
   18.9451   19.9933   20.5914 H   0  0  0  0  0  0  0  0  0  0  0  0
   19.6037   18.0109   21.1877 C   0  0  0  0  0  0  0  0  0  0  0  0
   20.4125   17.5618   21.7808 H   0  0  0  0  0  0  0  0  0  0  0  0
   18.6590   17.7318   21.6749 H   0  0  0  0  0  0  0  0  0  0  0  0
   19.6349   17.4357   19.7575 C   0  0  0  0  0  0  0  0  0  0  0  0
   18.8160   17.8448   19.1514 H   0  0  0  0  0  0  0  0  0  0  0  0
   20.5833   17.6746   19.2586 H   0  0  0  0  0  0  0  0  0  0  0  0
   19.5285   16.3432   19.7776 H   0  0  0  0  0  0  0  0  0  0  0  0
  1  2  1  0  0  0  0
  1  3  2  0  0  0  0
  1  4  1  0  0  0  0
  4  5  1  0  0  0  0
  4  6  2  0  0  0  0
  6  7  1  0  0  0  0
  6  8  1  0  0  0  0
  8  9  1  0  0  0  0
  8 10  1  0  0  0  0
  8 11  1  0  0  0  0
 11 12  1  0  0  0  0
 11 13  1  0  0  0  0
 11 14  1  0  0  0  0
 14 15  1  0  0  0  0
 14 16  1  0  0  0  0
 14 17  1  0  0  0  0
M  END
> <VConfSearch Rank>
9

> <Conf_Id>
36

> <Delta U+W>
0.000

> <U+W>
-53.409

> <U>
9.048

> <W>
-62.457

> <W(PB)>
-64.540

> <W(SA)>
2.084

> <Valence>
2.652

> <Coulomb>
5.578

> <VdW>
0.818

> <VdW6>
-4.534

> <VdW12>
5.352

> <Bond>
0.063

> <Angle>
2.579

> <Pdih>
0.010

> <Idih>
0.000

> <Tether>
0.000

$$$$
VeraChem MOL file


 17 16  0  0  0  0  0  0  0  0999 V2000     
   22.9768   20.7055   21.9383 C   0  0  0  0  0  0  0  0  0  0  0  0
   23.8018   19.9205   22.3669 O   0  5  0  0  0  0  0  0  0  0  0  0
   23.2105   21.8879   21.7802 O   0  0  0  0  0  0  0  0  0  0  0  0
   21.6155   20.2203   21.5837 C   0  0  0  0  0  0  0  0  0  0  0  0
   20.9268   20.9728   21.2065 H   0  0  0  0  0  0  0  0  0  0  0  0
   21.2174   18.9339   21.7092 C   0  0  0  0  0  0  0  0  0  0  0  0
   21.8986   18.1722   22.0882 H   0  0  0  0  0  0  0  0  0  0  0  0
   19.8304   18.4491   21.3481 C   0  0  0  0  0  0  0  0  0  0  0  0
   19.8662   17.3779   21.1079 H   0  0  0  0  0  0  0  0  0  0  0  0
   19.4778   18.9608   20.4422 H   0  0  0  0  0  0  0  0  0  0  0  0
   18.8341   18.6865   22.5013 C   0  0  0  0  0  0  0  0  0  0  0  0
   19.1879   18.1719   23.4056 H   0  0  0  0  0  0  0  0  0  0  0  0
   18.7941   19.7584   22.7401 H   0  0  0  0  0  0  0  0  0  0  0  0
   17.4198   18.1865   22.1445 C   0  0  0  0  0  0  0  0  0  0  0  0
   17.4258   17.1094   21.9318 H   0  0  0  0  0  0  0  0  0  0  0  0
   16.7257   18.3637   22.9763 H   0  0  0  0  0  0  0  0  0  0  0  0
   17.0300   18.7084   21.2608 H   0  0  0  0  0  0  0  0  0  0  0  0
  1  2  1  0  0  0  0
  1  3  2  0  0  0  0
  1  4  1  0  0  0  0
  4  5  1  0  0  0  0
  4  6  2  0  0  0  0
  6  7  1  0  0  0  0
  6  8  1  0  0  0  0
  8  9  1  0  0  0  0
  8 10  1  0  0  0  0
  8 11  1  0  0  0  0
 11 12  1  0  0  0  0
 11 13  1  0  0  0  0
 11 14  1  0  0  0  0
 14 15  1  0  0  0  0
 14 16  1  0  0  0  0
 14 17  1  0  0  0  0
M  END
> <VConfSearch Rank>
10

> <Conf_Id>
1

> <Delta U+W>
0.030

> <U+W>
-53.378

> <U>
9.048

> <W>
-62.426

> <W(PB)>
-64.506

> <W(SA)>
2.080

> <Valence>
2.652

> <Coulomb>
5.578

> <VdW>
0.818

> <VdW6>
-4.535

> <VdW12>
5.352

> <Bond>
0.063

> <Angle>
2.579

> <Pdih>
0.010

> <Idih>
0.000

> <Tether>
0.000

$$$$
VeraChem MOL file


 17 16  0  0  0  0  0  0  0  0999 V2000     
   18.0597   18.3905   19.7734 C   0  0  0  0  0  0  0  0  0  0  0  0
   18.4770   17.2929   19.4545 O   0  5  0  0  0  0  0  0  0  0  0  0
   16.9687   18.8057   19.4343 O   0  0  0  0  0  0  0  0  0  0  0  0
   18.9047   19.2833   20.6118 C   0  0  0  0  0  0  0  0  0  0  0  0
   18.4728   20.2501   20.8600 H   0  0  0  0  0  0  0  0  0  0  0  0
   20.1364   18.9516   21.0612 C   0  0  0  0  0  0  0  0  0  0  0  0
   20.5772   17.9843   20.8213 H   0  0  0  0  0  0  0  0  0  0  0  0
   20.9891   19.8641   21.9175 C   0  0  0  0  0  0  0  0  0  0  0  0
   20.9057   20.8965   21.5517 H   0  0  0  0  0  0  0  0  0  0  0  0
   22.0474   19.5883   21.8170 H   0  0  0  0  0  0  0  0  0  0  0  0
   20.5833   19.8206   23.4072 C   0  0  0  0  0  0  0  0  0  0  0  0
   21.1606   20.5753   23.9589 H   0  0  0  0  0  0  0  0  0  0  0  0
   19.5250   20.0975   23.5110 H   0  0  0  0  0  0  0  0  0  0  0  0
   20.8235   18.4358   24.0454 C   0  0  0  0  0  0  0  0  0  0  0  0
   21.8786   18.1437   23.9643 H   0  0  0  0  0  0  0  0  0  0  0  0
   20.5565   18.4501   25.1100 H   0  0  0  0  0  0  0  0  0  0  0  0
   20.2154   17.6635   23.5564 H   0  0  0  0  0  0  0  0  0  0  0  0
  1  2  1  0  0  0  0
  1  3  2  0  0  0  0
  1  4  1  0  0  0  0
  4  5  1  0  0  0  0
  4  6  2  0  0  0  0
  6  7  1  0  0  0  0
  6  8  1  0  0  0  0
  8  9  1  0  0  0  0
  8 10  1  0  0  0  0
  8 11  1  0  0  0  0
 11 12  1  0  0  0  0
 11 13  1  0  0  0  0
 11 14  1  0  0  0  0
 14 15  1  0  0  0  0
 14 16  1  0  0  0  0
 14 17  1  0  0  0  0
M  END
> <VConfSearch Rank>
11

> <Conf_Id>
3

> <Delta U+W>
0.531

> <U+W>
-52.878

> <U>
10.067

> <W>
-62.945

> <W(PB)>
-64.982

> <W(SA)>
2.037

> <Valence>
2.779

> <Coulomb>
6.474

> <VdW>
0.815

> <VdW6>
-5.088

> <VdW12>
5.902

> <Bond>
0.078

> <Angle>
2.651

> <Pdih>
0.050

> <Idih>
0.000

> <Tether>
0.000

$$$$
VeraChem MOL file


 17 16  0  0  0  0  0  0  0  0999 V2000     
   19.1815   16.9554   24.0485 C   0  0  0  0  0  0  0  0  0  0  0  0
   18.0945   16.7185   24.5384 O   0  5  0  0  0  0  0  0  0  0  0  0
   20.2263   16.5808   24.5470 O   0  0  0  0  0  0  0  0  0  0  0  0
   19.2093   17.7365   22.7823 C   0  0  0  0  0  0  0  0  0  0  0  0
   18.2408   18.0398   22.3912 H   0  0  0  0  0  0  0  0  0  0  0  0
   20.3450   18.0739   22.1297 C   0  0  0  0  0  0  0  0  0  0  0  0
   21.3196   17.7773   22.5166 H   0  0  0  0  0  0  0  0  0  0  0  0
   20.3702   18.8716   20.8423 C   0  0  0  0  0  0  0  0  0  0  0  0
   19.3808   18.8662   20.3650 H   0  0  0  0  0  0  0  0  0  0  0  0
   21.0538   18.3860   20.1332 H   0  0  0  0  0  0  0  0  0  0  0  0
   20.8311   20.3287   21.0646 C   0  0  0  0  0  0  0  0  0  0  0  0
   21.8196   20.3350   21.5444 H   0  0  0  0  0  0  0  0  0  0  0  0
   20.9529   20.8189   20.0888 H   0  0  0  0  0  0  0  0  0  0  0  0
   19.8342   21.1437   21.9159 C   0  0  0  0  0  0  0  0  0  0  0  0
   19.7349   20.7199   22.9236 H   0  0  0  0  0  0  0  0  0  0  0  0
   20.1742   22.1822   22.0198 H   0  0  0  0  0  0  0  0  0  0  0  0
   18.8401   21.1573   21.4505 H   0  0  0  0  0  0  0  0  0  0  0  0
  1  2  1  0  0  0  0
  1  3  2  0  0  0  0
  1  4  1  0  0  0  0
  4  5  1  0  0  0  0
  4  6  2  0  0  0  0
  6  7  1  0  0  0  0
  6  8  1  0  0  0  0
  8  9  1  0  0  0  0
  8 10  1  0  0  0  0
  8 11  1  0  0  0  0
 11 12  1  0  0  0  0
 11 13  1  0  0  0  0
 11 14  1  0  0  0  0
 14 15  1  0  0  0  0
 14 16  1  0  0  0  0
 14 17  1  0  0  0  0
M  END
> <VConfSearch Rank>
12

> <Conf_Id>
45

> <Delta U+W>
0.562

> <U+W>
-52.846

> <U>
10.243

> <W>
-63.089

> <W(PB)>
-65.116

> <W(SA)>
2.026

> <Valence>
2.822

> <Coulomb>
6.637

> <VdW>
0.785

> <VdW6>
-5.216

> <VdW12>
6.001

> <Bond>
0.080

> <Angle>
2.678

> <Pdih>
0.064

> <Idih>
0.000

> <Tether>
0.000

$$$$
VeraChem MOL file


 17 16  0  0  0  0  0  0  0  0999 V2000     
   18.3479   16.9846   19.8835 C   0  0  0  0  0  0  0  0  0  0  0  0
   18.5495   15.8026   19.6837 O   0  5  0  0  0  0  0  0  0  0  0  0
   17.6201   17.6589   19.1793 O   0  0  0  0  0  0  0  0  0  0  0  0
   19.0312   17.6115   21.0473 C   0  0  0  0  0  0  0  0  0  0  0  0
   19.6670   16.9535   21.6352 H   0  0  0  0  0  0  0  0  0  0  0  0
   18.8996   18.9140   21.3866 C   0  0  0  0  0  0  0  0  0  0  0  0
   18.2670   19.5827   20.8031 H   0  0  0  0  0  0  0  0  0  0  0  0
   19.5998   19.5442   22.5706 C   0  0  0  0  0  0  0  0  0  0  0  0
   19.6178   18.8409   23.4143 H   0  0  0  0  0  0  0  0  0  0  0  0
   19.0334   20.4226   22.9081 H   0  0  0  0  0  0  0  0  0  0  0  0
   21.0400   19.9650   22.2130 C   0  0  0  0  0  0  0  0  0  0  0  0
   21.6094   19.0864   21.8791 H   0  0  0  0  0  0  0  0  0  0  0  0
   21.0193   20.6699   21.3702 H   0  0  0  0  0  0  0  0  0  0  0  0
   21.7575   20.6169   23.4120 C   0  0  0  0  0  0  0  0  0  0  0  0
   21.2255   21.5173   23.7462 H   0  0  0  0  0  0  0  0  0  0  0  0
   21.8191   19.9208   24.2588 H   0  0  0  0  0  0  0  0  0  0  0  0
   22.7798   20.9092   23.1387 H   0  0  0  0  0  0  0  0  0  0  0  0
  1  2  1  0  0  0  0
  1  3  2  0  0  0  0
  1  4  1  0  0  0  0
  4  5  1  0  0  0  0
  4  6  2  0  0  0  0
  6  7  1  0  0  0  0
  6  8  1  0  0  0  0
  8  9  1  0  0  0  0
  8 10  1  0  0  0  0
  8 11  1  0  0  0  0
 11 12  1  0  0  0  0
 11 13  1  0  0  0  0
 11 14  1  0  0  0  0
 14 15  1  0  0  0  0
 14 16  1  0  0  0  0
 14 17  1  0  0  0  0
M  END
> <VConfSearch Rank>
13

> <Conf_Id>
36

> <Delta U+W>
0.000

> <U+W>
-53.409

> <U>
9.048

> <W>
-62.457

> <W(PB)>
-64.540

> <W(SA)>
2.084

> <Valence>
2.652

> <Coulomb>
5.578

> <VdW>
0.818

> <VdW6>
-4.534

> <VdW12>
5.352

> <Bond>
0.063

> <Angle>
2.579

> <Pdih>
0.010

> <Idih>
0.000

> <Tether>
0.000

$$$$
VeraChem MOL file


 17 16  0  0  0  0  0  0  0  0999 V2000     
   16.8823   18.0945   21.1575 C   0  0  0  0  0  0  0  0  0  0  0  0
   16.8476   17.9243   19.9532 O   0  5  0  0  0  0  0  0  0  0  0  0
   15.8851   18.0969   21.8527 O   0  0  0  0  0  0  0  0  0  0  0  0
   18.1911   18.3098   21.8318 C   0  0  0  0  0  0  0  0  0  0  0  0
   18.1518   18.4554   22.9089 H   0  0  0  0  0  0  0  0  0  0  0  0
   19.3780   18.3329   21.1840 C   0  0  0  0  0  0  0  0  0  0  0  0
   19.4288   18.1904   20.1046 H   0  0  0  0  0  0  0  0  0  0  0  0
   20.7046   18.5543   21.8771 C   0  0  0  0  0  0  0  0  0  0  0  0
   21.5108   18.1075   21.2798 H   0  0  0  0  0  0  0  0  0  0  0  0
   20.7120   18.0390   22.8473 H   0  0  0  0  0  0  0  0  0  0  0  0
   20.9869   20.0566   22.0835 C   0  0  0  0  0  0  0  0  0  0  0  0
   20.9811   20.5694   21.1116 H   0  0  0  0  0  0  0  0  0  0  0  0
   20.1832   20.5043   22.6844 H   0  0  0  0  0  0  0  0  0  0  0  0
   22.3418   20.2911   22.7812 C   0  0  0  0  0  0  0  0  0  0  0  0
   23.1672   19.8804   22.1850 H   0  0  0  0  0  0  0  0  0  0  0  0
   22.5250   21.3647   22.9192 H   0  0  0  0  0  0  0  0  0  0  0  0
   22.3623   19.8141   23.7699 H   0  0  0  0  0  0  0  0  0  0  0  0
  1  2  1  0  0  0  0
  1  3  2  0  0  0  0
  1  4  1  0  0  0  0
  4  5  1  0  0  0  0
  4  6  2  0  0  0  0
  6  7  1  0  0  0  0
  6  8  1  0  0  0  0
  8  9  1  0  0  0  0
  8 10  1  0  0  0  0
  8 11  1  0  0  0  0
 11 12  1  0  0  0  0
 11 13  1  0  0  0  0
 11 14  1  0  0  0  0
 14 15  1  0  0  0  0
 14 16  1  0  0  0  0
 14 17  1  0  0  0  0
M  END
> <VConfSearch Rank>
14

> <Conf_Id>
1

> <Delta U+W>
0.030

> <U+W>
-53.378

> <U>
9.048

> <W>
-62.426

> <W(PB)>
-64.506

> <W(SA)>
2.080

> <Valence>
2.652

> <Coulomb>
5.578

> <VdW>
0.818

> <VdW6>
-4.535

> <VdW12>
5.352

> <Bond>
0.063

> <Angle>
2.579

> <Pdih>
0.010

> <Idih>
0.000

> <Tether>
0.000

$$$$
VeraChem MOL file


 17 16  0  0  0  0  0  0  0  0999 V2000     
   20.0345   20.0056   19.1080 C   0  0  0  0  0  0  0  0  0  0  0  0
   21.1380   20.5142   19.0439 O   0  5  0  0  0  0  0  0  0  0  0  0
   19.3846   19.7131   18.1232 O   0  0  0  0  0  0  0  0  0  0  0  0
   19.4312   19.7228   20.4385 C   0  0  0  0  0  0  0  0  0  0  0  0
   18.4431   19.2687   20.4249 H   0  0  0  0  0  0  0  0  0  0  0  0
   20.0403   19.9941   21.6151 C   0  0  0  0  0  0  0  0  0  0  0  0
   21.0317   20.4458   21.6403 H   0  0  0  0  0  0  0  0  0  0  0  0
   19.4217   19.6998   22.9656 C   0  0  0  0  0  0  0  0  0  0  0  0
   18.3524   19.9501   22.9433 H   0  0  0  0  0  0  0  0  0  0  0  0
   19.8716   20.3466   23.7307 H   0  0  0  0  0  0  0  0  0  0  0  0
   19.5868   18.2205   23.3777 C   0  0  0  0  0  0  0  0  0  0  0  0
   19.0310   18.0428   24.3087 H   0  0  0  0  0  0  0  0  0  0  0  0
   19.1363   17.5708   22.6145 H   0  0  0  0  0  0  0  0  0  0  0  0
   21.0643   17.8268   23.5893 C   0  0  0  0  0  0  0  0  0  0  0  0
   21.5320   18.4557   24.3581 H   0  0  0  0  0  0  0  0  0  0  0  0
   21.1423   16.7810   23.9133 H   0  0  0  0  0  0  0  0  0  0  0  0
   21.6399   17.9352   22.6608 H   0  0  0  0  0  0  0  0  0  0  0  0
  1  2  1  0  0  0  0
  1  3  2  0  0  0  0
  1  4  1  0  0  0  0
  4  5  1  0  0  0  0
  4  6  2  0  0  0  0
  6  7  1  0  0  0  0
  6  8  1  0  0  0  0
  8  9  1  0  0  0  0
  8 10  1  0  0  0  0
  8 11  1  0  0  0  0
 11 12  1  0  0  0  0
 11 13  1  0  0  0  0
 11 14  1  0  0  0  0
 14 15  1  0  0  0  0
 14 16  1  0  0  0  0
 14 17  1  0  0  0  0
M  END
> <VConfSearch Rank>
15

> <Conf_Id>
3

> <Delta U+W>
0.531

> <U+W>
-52.878

> <U>
10.067

> <W>
-62.945

> <W(PB)>
-64.982

> <W(SA)>
2.037

> <Valence>
2.779

> <Coulomb>
6.474

> <VdW>
0.815

> <VdW6>
-5.088

> <VdW12>
5.902

> <Bond>
0.078

> <Angle>
2.651

> <Pdih>
0.050

> <Idih>
0.000

> <Tether>
0.000

$$$$
VeraChem MOL file


 17 16  0  0  0  0  0  0  0  0999 V2000     
   18.1095   18.0908   19.9288 C   0  0  0  0  0  0  0  0  0  0  0  0
   18.3637   17.6642   18.8192 O   0  5  0  0  0  0  0  0  0  0  0  0
   17.0130   18.5192   20.2363 O   0  0  0  0  0  0  0  0  0  0  0  0
   19.2025   18.0750   20.9383 C   0  0  0  0  0  0  0  0  0  0  0  0
   20.1565   17.6794   20.5976 H   0  0  0  0  0  0  0  0  0  0  0  0
   19.0621   18.5199   22.2079 C   0  0  0  0  0  0  0  0  0  0  0  0
   18.1108   18.9212   22.5564 H   0  0  0  0  0  0  0  0  0  0  0  0
   20.1776   18.5051   23.2326 C   0  0  0  0  0  0  0  0  0  0  0  0
   20.9821   17.8264   22.9182 H   0  0  0  0  0  0  0  0  0  0  0  0
   19.7904   18.1022   24.1780 H   0  0  0  0  0  0  0  0  0  0  0  0
   20.7572   19.9135   23.4884 C   0  0  0  0  0  0  0  0  0  0  0  0
   19.9526   20.5937   23.8005 H   0  0  0  0  0  0  0  0  0  0  0  0
   21.4671   19.8624   24.3255 H   0  0  0  0  0  0  0  0  0  0  0  0
   21.4781   20.4927   22.2524 C   0  0  0  0  0  0  0  0  0  0  0  0
   20.7835   20.6193   21.4119 H   0  0  0  0  0  0  0  0  0  0  0  0
   21.9100   21.4752   22.4826 H   0  0  0  0  0  0  0  0  0  0  0  0
   22.2922   19.8319   21.9274 H   0  0  0  0  0  0  0  0  0  0  0  0
  1  2  1  0  0  0  0
  1  3  2  0  0  0  0
  1  4  1  0  0  0  0
  4  5  1  0  0  0  0
  4  6  2  0  0  0  0
  6  7  1  0  0  0  0
  6  8  1  0  0  0  0
  8  9  1  0  0  0  0
  8 10  1  0  0  0  0
  8 11  1  0  0  0  0
 11 12  1  0  0  0  0
 11 13  1  0  0  0  0
 11 14  1  0  0  0  0
 14 15  1  0  0  0  0
 14 16  1  0  0  0  0
 14 17  1  0  0  0  0
M  END
> <VConfSearch Rank>
16

> <Conf_Id>
45

> <Delta U+W>
0.562

> <U+W>
-52.846

> <U>
10.243

> <W>
-63.089

> <W(PB)>
-65.116

> <W(SA)>
2.026

> <Valence>
2.822

> <Coulomb>
6.637

> <VdW>
0.785

> <VdW6>
-5.216

> <VdW12>
6.001

> <Bond>
0.080

> <Angle>
2.678

> <Pdih>
0.064

> <Idih>
0.000

> <Tether>
0.000

$$$$
VeraChem MOL file


 17 16  0  0  0  0  0  0  0  0999 V2000     
   20.6675   21.6380   19.7755 C   0  0  0  0  0  0  0  0  0  0  0  0
   20.2919   21.7968   18.6303 O   0  5  0  0  0  0  0  0  0  0  0  0
   21.5655   22.2913   20.2728 O   0  0  0  0  0  0  0  0  0  0  0  0
   19.9827   20.5941   20.5851 C   0  0  0  0  0  0  0  0  0  0  0  0
   19.1894   20.0469   20.0809 H   0  0  0  0  0  0  0  0  0  0  0  0
   20.2971   20.3096   21.8694 C   0  0  0  0  0  0  0  0  0  0  0  0
   21.0917   20.8501   22.3834 H   0  0  0  0  0  0  0  0  0  0  0  0
   19.5971   19.2448   22.6851 C   0  0  0  0  0  0  0  0  0  0  0  0
   18.5229   19.2410   22.4550 H   0  0  0  0  0  0  0  0  0  0  0  0
   19.6868   19.4819   23.7538 H   0  0  0  0  0  0  0  0  0  0  0  0
   20.1924   17.8478   22.4146 C   0  0  0  0  0  0  0  0  0  0  0  0
   20.0996   17.6073   21.3464 H   0  0  0  0  0  0  0  0  0  0  0  0
   21.2663   17.8536   22.6475 H   0  0  0  0  0  0  0  0  0  0  0  0
   19.4905   16.7580   23.2495 C   0  0  0  0  0  0  0  0  0  0  0  0
   19.5956   16.9574   24.3241 H   0  0  0  0  0  0  0  0  0  0  0  0
   18.4195   16.7104   23.0126 H   0  0  0  0  0  0  0  0  0  0  0  0
   19.9271   15.7720   23.0437 H   0  0  0  0  0  0  0  0  0  0  0  0
  1  2  1  0  0  0  0
  1  3  2  0  0  0  0
  1  4  1  0  0  0  0
  4  5  1  0  0  0  0
  4  6  2  0  0  0  0
  6  7  1  0  0  0  0
  6  8  1  0  0  0  0
  8  9  1  0  0  0  0
  8 10  1  0  0  0  0
  8 11  1  0  0  0  0
 11 12  1  0  0  0  0
 11 13  1  0  0  0  0
 11 14  1  0  0  0  0
 14 15  1  0  0  0  0
 14 16  1  0  0  0  0
 14 17  1  0  0  0  0
M  END
> <VConfSearch Rank>
17

> <Conf_Id>
36

> <Delta U+W>
0.000

> <U+W>
-53.409

> <U>
9.048

> <W>
-62.457

> <W(PB)>
-64.540

> <W(SA)>
2.084

> <Valence>
2.652

> <Coulomb>
5.578

> <VdW>
0.818

> <VdW6>
-4.534

> <VdW12>
5.352

> <Bond>
0.063

> <Angle>
2.579

> <Pdih>
0.010

> <Idih>
0.000

> <Tether>
0.000

$$$$
VeraChem MOL file


 17 16  0  0  0  0  0  0  0  0999 V2000     
   16.6928   18.7090   22.3593 C   0  0  0  0  0  0  0  0  0  0  0  0
   16.1515   19.6448   21.8010 O   0  5  0  0  0  0  0  0  0  0  0  0
   16.0987   17.9479   23.0978 O   0  0  0  0  0  0  0  0  0  0  0  0
   18.1445   18.4643   22.1432 C   0  0  0  0  0  0  0  0  0  0  0  0
   18.5659   17.6120   22.6714 H   0  0  0  0  0  0  0  0  0  0  0  0
   18.9281   19.2300   21.3504 C   0  0  0  0  0  0  0  0  0  0  0  0
   18.5168   20.0876   20.8184 H   0  0  0  0  0  0  0  0  0  0  0  0
   20.4043   18.9753   21.1375 C   0  0  0  0  0  0  0  0  0  0  0  0
   20.7157   19.4004   20.1738 H   0  0  0  0  0  0  0  0  0  0  0  0
   20.5943   17.8949   21.0784 H   0  0  0  0  0  0  0  0  0  0  0  0
   21.2500   19.5914   22.2707 C   0  0  0  0  0  0  0  0  0  0  0  0
   21.0599   20.6723   22.3264 H   0  0  0  0  0  0  0  0  0  0  0  0
   20.9425   19.1640   23.2353 H   0  0  0  0  0  0  0  0  0  0  0  0
   22.7568   19.3440   22.0562 C   0  0  0  0  0  0  0  0  0  0  0  0
   23.0977   19.7894   21.1123 H   0  0  0  0  0  0  0  0  0  0  0  0
   23.3417   19.7892   22.8716 H   0  0  0  0  0  0  0  0  0  0  0  0
   22.9783   18.2691   22.0280 H   0  0  0  0  0  0  0  0  0  0  0  0
  1  2  1  0  0  0  0
  1  3  2  0  0  0  0
  1  4  1  0  0  0  0
  4  5  1  0  0  0  0
  4  6  2  0  0  0  0
  6  7  1  0  0  0  0
  6  8  1  0  0  0  0
  8  9  1  0  0  0  0
  8 10  1  0  0  0  0
  8 11  1  0  0  0  0
 11 12  1  0  0  0  0
 11 13  1  0  0  0  0
 11 14  1  0  0  0  0
 14 15  1  0  0  0  0
 14 16  1  0  0  0  0
 14 17  1  0  0  0  0
M  END
> <VConfSearch Rank>
18

> <Conf_Id>
1

> <Delta U+W>
0.030

> <U+W>
-53.378

> <U>
9.048

> <W>
-62.426

> <W(PB)>
-64.506

> <W(SA)>
2.080

> <Valence>
2.652

> <Coulomb>
5.578

> <VdW>
0.818

> <VdW6>
-4.535

> <VdW12>
5.352

> <Bond>
0.063

> <Angle>
2.579

> <Pdih>
0.010

> <Idih>
0.000

> <Tether>
0.000

$$$$
VeraChem MOL file


 17 16  0  0  0  0  0  0  0  0999 V2000     
   18.0187   16.7508   21.8339 C   0  0  0  0  0  0  0  0  0  0  0  0
   16.9729   17.3650   21.7363 O   0  5  0  0  0  0  0  0  0  0  0  0
   18.1188   15.5706   21.5604 O   0  0  0  0  0  0  0  0  0  0  0  0
   19.2417   17.4521   22.3101 C   0  0  0  0  0  0  0  0  0  0  0  0
   20.1418   16.8452   22.3753 H   0  0  0  0  0  0  0  0  0  0  0  0
   19.2765   18.7612   22.6477 C   0  0  0  0  0  0  0  0  0  0  0  0
   18.3813   19.3792   22.5829 H   0  0  0  0  0  0  0  0  0  0  0  0
   20.5260   19.4691   23.1279 C   0  0  0  0  0  0  0  0  0  0  0  0
   21.0818   18.8125   23.8110 H   0  0  0  0  0  0  0  0  0  0  0  0
   20.2502   20.3566   23.7131 H   0  0  0  0  0  0  0  0  0  0  0  0
   21.4500   19.8857   21.9625 C   0  0  0  0  0  0  0  0  0  0  0  0
   22.3828   20.2964   22.3728 H   0  0  0  0  0  0  0  0  0  0  0  0
   21.7287   18.9995   21.3757 H   0  0  0  0  0  0  0  0  0  0  0  0
   20.7992   20.9372   21.0386 C   0  0  0  0  0  0  0  0  0  0  0  0
   20.5235   21.8381   21.6021 H   0  0  0  0  0  0  0  0  0  0  0  0
   21.4943   21.2347   20.2429 H   0  0  0  0  0  0  0  0  0  0  0  0
   19.8933   20.5398   20.5627 H   0  0  0  0  0  0  0  0  0  0  0  0
  1  2  1  0  0  0  0
  1  3  2  0  0  0  0
  1  4  1  0  0  0  0
  4  5  1  0  0  0  0
  4  6  2  0  0  0  0
  6  7  1  0  0  0  0
  6  8  1  0  0  0  0
  8  9  1  0  0  0  0
  8 10  1  0  0  0  0
  8 11  1  0  0  0  0
 11 12  1  0  0  0  0
 11 13  1  0  0  0  0
 11 14  1  0  0  0  0
 14 15  1  0  0  0  0
 14 16  1  0  0  0  0
 14 17  1  0  0  0  0
M  END
> <VConfSearch Rank>
19

> <Conf_Id>
3

> <Delta U+W>
0.531

> <U+W>
-52.878

> <U>
10.067

> <W>
-62.945

> <W(PB)>
-64.982

> <W(SA)>
2.037

> <Valence>
2.779

> <Coulomb>
6.474

> <VdW>
0.815

> <VdW6>
-5.088

> <VdW12>
5.902

> <Bond>
0.078

> <Angle>
2.651

> <Pdih>
0.050

> <Idih>
0.000

> <Tether>
0.000

$$$$
VeraChem MOL file


 17 16  0  0  0  0  0  0  0  0999 V2000     
   18.0492   16.7807   21.9181 C   0  0  0  0  0  0  0  0  0  0  0  0
   16.8337   16.7817   21.9317 O   0  5  0  0  0  0  0  0  0  0  0  0
   18.7119   15.7989   22.1962 O   0  0  0  0  0  0  0  0  0  0  0  0
   18.7334   18.0463   21.5385 C   0  0  0  0  0  0  0  0  0  0  0  0
   18.0822   18.8846   21.3021 H   0  0  0  0  0  0  0  0  0  0  0  0
   20.0773   18.1893   21.4836 C   0  0  0  0  0  0  0  0  0  0  0  0
   20.7372   17.3556   21.7224 H   0  0  0  0  0  0  0  0  0  0  0  0
   20.7710   19.4799   21.0994 C   0  0  0  0  0  0  0  0  0  0  0  0
   20.0724   20.1571   20.5893 H   0  0  0  0  0  0  0  0  0  0  0  0
   21.5652   19.2578   20.3742 H   0  0  0  0  0  0  0  0  0  0  0  0
   21.3919   20.1969   22.3182 C   0  0  0  0  0  0  0  0  0  0  0  0
   22.0889   19.5193   22.8306 H   0  0  0  0  0  0  0  0  0  0  0  0
   21.9864   21.0515   21.9668 H   0  0  0  0  0  0  0  0  0  0  0  0
   20.3278   20.7010   23.3164 C   0  0  0  0  0  0  0  0  0  0  0  0
   19.7543   19.8660   23.7393 H   0  0  0  0  0  0  0  0  0  0  0  0
   20.8021   21.2383   24.1478 H   0  0  0  0  0  0  0  0  0  0  0  0
   19.6240   21.3867   22.8269 H   0  0  0  0  0  0  0  0  0  0  0  0
  1  2  1  0  0  0  0
  1  3  2  0  0  0  0
  1  4  1  0  0  0  0
  4  5  1  0  0  0  0
  4  6  2  0  0  0  0
  6  7  1  0  0  0  0
  6  8  1  0  0  0  0
  8  9  1  0  0  0  0
  8 10  1  0  0  0  0
  8 11  1  0  0  0  0
 11 12  1  0  0  0  0
 11 13  1  0  0  0  0
 11 14  1  0  0  0  0
 14 15  1  0  0  0  0
 14 16  1  0  0  0  0
 14 17  1  0  0  0  0
M  END
> <VConfSearch Rank>
20

> <Conf_Id>
45

> <Delta U+W>
0.562

> <U+W>
-52.846

> <U>
10.243

> <W>
-63.089

> <W(PB)>
-65.116

> <W(SA)>
2.026

> <Valence>
2.822

> <Coulomb>
6.637

> <VdW>
0.785

> <VdW6>
-5.216

> <VdW12>
6.001

> <Bond>
0.080

> <Angle>
2.678

> <Pdih>
0.064

> <Idih>
0.000

> <Tether>
0.000

$$$$
VeraChem MOL file


 17 16  0  0  0  0  0  0  0  0999 V2000     
   17.9466   18.2019   24.4336 C   0  0  0  0  0  0  0  0  0  0  0  0
   16.7816   17.8571   24.3921 O   0  5  0  0  0  0  0  0  0  0  0  0
   18.5134   18.4910   25.4706 O   0  0  0  0  0  0  0  0  0  0  0  0
   18.6914   18.2640   23.1469 C   0  0  0  0  0  0  0  0  0  0  0  0
   18.1265   17.9931   22.2579 H   0  0  0  0  0  0  0  0  0  0  0  0
   19.9890   18.6313   23.0441 C   0  0  0  0  0  0  0  0  0  0  0  0
   20.5637   18.9069   23.9281 H   0  0  0  0  0  0  0  0  0  0  0  0
   20.7386   18.6939   21.7313 C   0  0  0  0  0  0  0  0  0  0  0  0
   20.4372   17.8572   21.0865 H   0  0  0  0  0  0  0  0  0  0  0  0
   21.8146   18.5741   21.9161 H   0  0  0  0  0  0  0  0  0  0  0  0
   20.4856   20.0298   21.0030 C   0  0  0  0  0  0  0  0  0  0  0  0
   19.4097   20.1493   20.8136 H   0  0  0  0  0  0  0  0  0  0  0  0
   20.7897   20.8650   21.6492 H   0  0  0  0  0  0  0  0  0  0  0  0
   21.2537   20.1055   19.6682 C   0  0  0  0  0  0  0  0  0  0  0  0
   22.3360   20.0205   19.8322 H   0  0  0  0  0  0  0  0  0  0  0  0
   20.9450   19.2983   18.9910 H   0  0  0  0  0  0  0  0  0  0  0  0
   21.0614   21.0620   19.1650 H   0  0  0  0  0  0  0  0  0  0  0  0
  1  2  1  0  0  0  0
  1  3  2  0  0  0  0
  1  4  1  0  0  0  0
  4  5  1  0  0  0  0
  4  6  2  0  0  0  0
  6  7  1  0  0  0  0
  6  8  1  0  0  0  0
  8  9  1  0  0  0  0
  8 10  1  0  0  0  0
  8 11  1  0  0  0  0
 11 12  1  0  0  0  0
 11 13  1  0  0  0  0
 11 14  1  0  0  0  0
 14 15  1  0  0  0  0
 14 16  1  0  0  0  0
 14 17  1  0  0  0  0
M  END
> <VConfSearch Rank>
21

> <Conf_Id>
36

> <Delta U+W>
0.000

> <U+W>
-53.409

> <U>
9.048

> <W>
-62.457

> <W(PB)>
-64.540

> <W(SA)>
2.084

> <Valence>
2.652

> <Coulomb>
5.578

> <VdW>
0.818

> <VdW6>
-4.534

> <VdW12>
5.352

> <Bond>
0.063

> <Angle>
2.579

> <Pdih>
0.010

> <Idih>
0.000

> <Tether>
0.000

$$$$
VeraChem MOL file


 17 16  0  0  0  0  0  0  0  0999 V2000     
   21.0223   18.8402   18.7047 C   0  0  0  0  0  0  0  0  0  0  0  0
   20.6117   19.8293   18.1271 O   0  5  0  0  0  0  0  0  0  0  0  0
   21.5031   17.8877   18.1223 O   0  0  0  0  0  0  0  0  0  0  0  0
   20.9444   18.7707   20.1891 C   0  0  0  0  0  0  0  0  0  0  0  0
   21.3286   17.8597   20.6423 H   0  0  0  0  0  0  0  0  0  0  0  0
   20.4338   19.7545   20.9640 C   0  0  0  0  0  0  0  0  0  0  0  0
   20.0442   20.6705   20.5201 H   0  0  0  0  0  0  0  0  0  0  0  0
   20.3566   19.6751   22.4729 C   0  0  0  0  0  0  0  0  0  0  0  0
   20.3381   20.6893   22.8942 H   0  0  0  0  0  0  0  0  0  0  0  0
   21.2578   19.1882   22.8699 H   0  0  0  0  0  0  0  0  0  0  0  0
   19.1027   18.9028   22.9316 C   0  0  0  0  0  0  0  0  0  0  0  0
   18.2026   19.3929   22.5351 H   0  0  0  0  0  0  0  0  0  0  0  0
   19.1217   17.8864   22.5143 H   0  0  0  0  0  0  0  0  0  0  0  0
   19.0118   18.8254   24.4689 C   0  0  0  0  0  0  0  0  0  0  0  0
   18.9595   19.8292   24.9105 H   0  0  0  0  0  0  0  0  0  0  0  0
   18.1143   18.2729   24.7759 H   0  0  0  0  0  0  0  0  0  0  0  0
   19.8864   18.3112   24.8887 H   0  0  0  0  0  0  0  0  0  0  0  0
  1  2  1  0  0  0  0
  1  3  2  0  0  0  0
  1  4  1  0  0  0  0
  4  5  1  0  0  0  0
  4  6  2  0  0  0  0
  6  7  1  0  0  0  0
  6  8  1  0  0  0  0
  8  9  1  0  0  0  0
  8 10  1  0  0  0  0
  8 11  1  0  0  0  0
 11 12  1  0  0  0  0
 11 13  1  0  0  0  0
 11 14  1  0  0  0  0
 14 15  1  0  0  0  0
 14 16  1  0  0  0  0
 14 17  1  0  0  0  0
M  END
> <VConfSearch Rank>
22

> <Conf_Id>
1

> <Delta U+W>
0.030

> <U+W>
-53.378

> <U>
9.048

> <W>
-62.426

> <W(PB)>
-64.506

> <W(SA)>
2.080

> <Valence>
2.652

> <Coulomb>
5.578

> <VdW>
0.818

> <VdW6>
-4.535

> <VdW12>
5.352

> <Bond>
0.063

> <Angle>
2.579

> <Pdih>
0.010

> <Idih>
0.000

> <Tether>
0.000

$$$$
VeraChem MOL file


 17 16  0  0  0  0  0  0  0  0999 V2000     
   22.2904   19.6971   24.0399 C   0  0  0  0  0  0  0  0  0  0  0  0
   21.9737   20.8158   24.3986 O   0  5  0  0  0  0  0  0  0  0  0  0
   23.0991   19.0160   24.6399 O   0  0  0  0  0  0  0  0  0  0  0  0
   21.6776   19.1167   22.8145 C   0  0  0  0  0  0  0  0  0  0  0  0
   22.0049   18.1141   22.5493 H   0  0  0  0  0  0  0  0  0  0  0  0
   20.7648   19.7597   22.0514 C   0  0  0  0  0  0  0  0  0  0  0  0
   20.4274   20.7632   22.3098 H   0  0  0  0  0  0  0  0  0  0  0  0
   20.1425   19.1610   20.8074 C   0  0  0  0  0  0  0  0  0  0  0  0
   20.9094   18.6221   20.2348 H   0  0  0  0  0  0  0  0  0  0  0  0
   19.7767   19.9620   20.1510 H   0  0  0  0  0  0  0  0  0  0  0  0
   18.9841   18.1941   21.1370 C   0  0  0  0  0  0  0  0  0  0  0  0
   18.6434   17.7126   20.2101 H   0  0  0  0  0  0  0  0  0  0  0  0
   19.3473   17.3907   21.7928 H   0  0  0  0  0  0  0  0  0  0  0  0
   17.7888   18.9084   21.8032 C   0  0  0  0  0  0  0  0  0  0  0  0
   17.4007   19.7083   21.1591 H   0  0  0  0  0  0  0  0  0  0  0  0
   16.9723   18.1996   21.9925 H   0  0  0  0  0  0  0  0  0  0  0  0
   18.0784   19.3524   22.7645 H   0  0  0  0  0  0  0  0  0  0  0  0
  1  2  1  0  0  0  0
  1  3  2  0  0  0  0
  1  4  1  0  0  0  0
  4  5  1  0  0  0  0
  4  6  2  0  0  0  0
  6  7  1  0  0  0  0
  6  8  1  0  0  0  0
  8  9  1  0  0  0  0
  8 10  1  0  0  0  0
  8 11  1  0  0  0  0
 11 12  1  0  0  0  0
 11 13  1  0  0  0  0
 11 14  1  0  0  0  0
 14 15  1  0  0  0  0
 14 16  1  0  0  0  0
 14 17  1  0  0  0  0
M  END
> <VConfSearch Rank>
23

> <Conf_Id>
3

> <Delta U+W>
0.531

> <U+W>
-52.878

> <U>
10.067

> <W>
-62.945

> <W(PB)>
-64.982

> <W(SA)>
2.037

> <Valence>
2.779

> <Coulomb>
6.474

> <VdW>
0.815

> <VdW6>
-5.088

> <VdW12>
5.902

> <Bond>
0.078

> <Angle>
2.651

> <Pdih>
0.050

> <Idih>
0.000

> <Tether>
0.000

$$$$
VeraChem MOL file


 17 16  0  0  0  0  0  0  0  0999 V2000     
   19.0602   20.0122   19.3481 C   0  0  0  0  0  0  0  0  0  0  0  0
   18.7387   21.1219   18.9701 O   0  5  0  0  0  0  0  0  0  0  0  0
   18.7254   18.9950   18.7703 O   0  0  0  0  0  0  0  0  0  0  0  0
   19.9028   19.9199   20.5710 C   0  0  0  0  0  0  0  0  0  0  0  0
   20.1659   20.8663   21.0377 H   0  0  0  0  0  0  0  0  0  0  0  0
   20.3313   18.7532   21.1046 C   0  0  0  0  0  0  0  0  0  0  0  0
   20.0692   17.8003   20.6455 H   0  0  0  0  0  0  0  0  0  0  0  0
   21.1866   18.6623   22.3514 C   0  0  0  0  0  0  0  0  0  0  0  0
   21.6537   19.6320   22.5711 H   0  0  0  0  0  0  0  0  0  0  0  0
   22.0115   17.9604   22.1697 H   0  0  0  0  0  0  0  0  0  0  0  0
   20.3828   18.1833   23.5801 C   0  0  0  0  0  0  0  0  0  0  0  0
   19.9131   17.2145   23.3602 H   0  0  0  0  0  0  0  0  0  0  0  0
   21.0743   18.0140   24.4170 H   0  0  0  0  0  0  0  0  0  0  0  0
   19.3041   19.1975   24.0163 C   0  0  0  0  0  0  0  0  0  0  0  0
   18.5559   19.3444   23.2266 H   0  0  0  0  0  0  0  0  0  0  0  0
   18.7807   18.8425   24.9135 H   0  0  0  0  0  0  0  0  0  0  0  0
   19.7527   20.1721   24.2487 H   0  0  0  0  0  0  0  0  0  0  0  0
  1  2  1  0  0  0  0
  1  3  2  0  0  0  0
  1  4  1  0  0  0  0
  4  5  1  0  0  0  0
  4  6  2  0  0  0  0
  6  7  1  0  0  0  0
  6  8  1  0  0  0  0
  8  9  1  0  0  0  0
  8 10  1  0  0  0  0
  8 11  1  0  0  0  0
 11 12  1  0  0  0  0
 11 13  1  0  0  0  0
 11 14  1  0  0  0  0
 14 15  1  0  0  0  0
 14 16  1  0  0  0  0
 14 17  1  0  0  0  0
M  END
> <VConfSearch Rank>
24

> <Conf_Id>
45

> <Delta U+W>
0.562

> <U+W>
-52.846

> <U>
10.243

> <W>
-63.089

> <W(PB)>
-65.116

> <W(SA)>
2.026

> <Valence>
2.822

> <Coulomb>
6.637

> <VdW>
0.785

> <VdW6>
-5.216

> <VdW12>
6.001

> <Bond>
0.080

> <Angle>
2.678

> <Pdih>
0.064

> <Idih>
0.000

> <Tether>
0.000

$$$$
VeraChem MOL file


 17 16  0  0  0  0  0  0  0  0999 V2000     
   20.7691   17.6822   24.8657 C   0  0  0  0  0  0  0  0  0  0  0  0
   20.2984   16.6894   25.3858 O   0  5  0  0  0  0  0  0  0  0  0  0
   21.4765   18.4699   25.4654 O   0  0  0  0  0  0  0  0  0  0  0  0
   20.4532   17.9226   23.4316 C   0  0  0  0  0  0  0  0  0  0  0  0
   19.8162   17.1809   22.9552 H   0  0  0  0  0  0  0  0  0  0  0  0
   20.9066   18.9846   22.7276 C   0  0  0  0  0  0  0  0  0  0  0  0
   21.5436   19.7349   23.1957 H   0  0  0  0  0  0  0  0  0  0  0  0
   20.5789   19.2228   21.2698 C   0  0  0  0  0  0  0  0  0  0  0  0
   20.5739   18.2687   20.7253 H   0  0  0  0  0  0  0  0  0  0  0  0
   21.3641   19.8396   20.8123 H   0  0  0  0  0  0  0  0  0  0  0  0
   19.2135   19.9217   21.1078 C   0  0  0  0  0  0  0  0  0  0  0  0
   18.4261   19.3038   21.5614 H   0  0  0  0  0  0  0  0  0  0  0  0
   19.2217   20.8766   21.6516 H   0  0  0  0  0  0  0  0  0  0  0  0
   18.8763   20.1766   19.6250 C   0  0  0  0  0  0  0  0  0  0  0  0
   19.6322   20.8193   19.1549 H   0  0  0  0  0  0  0  0  0  0  0  0
   18.8313   19.2336   19.0646 H   0  0  0  0  0  0  0  0  0  0  0  0
   17.9022   20.6740   19.5299 H   0  0  0  0  0  0  0  0  0  0  0  0
  1  2  1  0  0  0  0
  1  3  2  0  0  0  0
  1  4  1  0  0  0  0
  4  5  1  0  0  0  0
  4  6  2  0  0  0  0
  6  7  1  0  0  0  0
  6  8  1  0  0  0  0
  8  9  1  0  0  0  0
  8 10  1  0  0  0  0
  8 11  1  0  0  0  0
 11 12  1  0  0  0  0
 11 13  1  0  0  0  0
 11 14  1  0  0  0  0
 14 15  1  0  0  0  0
 14 16  1  0  0  0  0
 14 17  1  0  0  0  0
M  END
> <VConfSearch Rank>
25

> <Conf_Id>
36

> <Delta U+W>
0.000

> <U+W>
-53.409

> <U>
9.048

> <W>
-62.457

> <W(PB)>
-64.540

> <W(SA)>
2.084

> <Valence>
2.652

> <Coulomb>
5.578

> <VdW>
0.818

> <VdW6>
-4.534

> <VdW12>
5.352

> <Bond>
0.063

> <Angle>
2.579

> <Pdih>
0.010

> <Idih>
0.000

> <Tether>
0.000

$$$$
VeraChem MOL file


 17 16  0  0  0  0  0  0  0  0999 V2000     
   19.7445   16.9663   19.3097 C   0  0  0  0  0  0  0  0  0  0  0  0
   20.7856   16.3388   19.2577 O   0  5  0  0  0  0  0  0  0  0  0  0
   18.9084   16.9317   18.4280 O   0  0  0  0  0  0  0  0  0  0  0  0
   19.4590   17.8194   20.4949 C   0  0  0  0  0  0  0  0  0  0  0  0
   18.5115   18.3531   20.4783 H   0  0  0  0  0  0  0  0  0  0  0  0
   20.2981   17.9530   21.5471 C   0  0  0  0  0  0  0  0  0  0  0  0
   21.2508   17.4245   21.5731 H   0  0  0  0  0  0  0  0  0  0  0  0
   20.0009   18.8242   22.7479 C   0  0  0  0  0  0  0  0  0  0  0  0
   20.5572   18.4524   23.6189 H   0  0  0  0  0  0  0  0  0  0  0  0
   18.9352   18.7572   23.0060 H   0  0  0  0  0  0  0  0  0  0  0  0
   20.3807   20.2954   22.4826 C   0  0  0  0  0  0  0  0  0  0  0  0
   21.4474   20.3601   22.2268 H   0  0  0  0  0  0  0  0  0  0  0  0
   19.8218   20.6703   21.6139 H   0  0  0  0  0  0  0  0  0  0  0  0
   20.0894   21.1885   23.7052 C   0  0  0  0  0  0  0  0  0  0  0  0
   20.6609   20.8544   24.5811 H   0  0  0  0  0  0  0  0  0  0  0  0
   20.3658   22.2305   23.4977 H   0  0  0  0  0  0  0  0  0  0  0  0
   19.0224   21.1660   23.9629 H   0  0  0  0  0  0  0  0  0  0  0  0
  1  2  1  0  0  0  0
  1  3  2  0  0  0  0
  1  4  1  0  0  0  0
  4  5  1  0  0  0  0
  4  6  2  0  0  0  0
  6  7  1  0  0  0  0
  6  8  1  0  0  0  0
  8  9  1  0  0  0  0
  8 10  1  0  0  0  0
  8 11  1  0  0  0  0
 11 12  1  0  0  0  0
 11 13  1  0  0  0  0
 11 14  1  0  0  0  0
 14 15  1  0  0  0  0
 14 16  1  0  0  0  0
 14 17  1  0  0  0  0
M  END
> <VConfSearch Rank>
26

> <Conf_Id>
1

> <Delta U+W>
0.030

> <U+W>
-53.378

> <U>
9.048

> <W>
-62.426

> <W(PB)>
-64.506

> <W(SA)>
2.080

> <Valence>
2.652

> <Coulomb>
5.578

> <VdW>
0.818

> <VdW6>
-4.535

> <VdW12>
5.352

> <Bond>
0.063

> <Angle>
2.579

> <Pdih>
0.010

> <Idih>
0.000

> <Tether>
0.000

$$$$
VeraChem MOL file


 17 16  0  0  0  0  0  0  0  0999 V2000     
   21.0700   21.9845   22.0648 C   0  0  0  0  0  0  0  0  0  0  0  0
   20.5914   22.3967   21.0249 O   0  5  0  0  0  0  0  0  0  0  0  0
   21.5197   22.7203   22.9216 O   0  0  0  0  0  0  0  0  0  0  0  0
   21.1216   20.5195   22.3207 C   0  0  0  0  0  0  0  0  0  0  0  0
   21.5624   20.2184   23.2682 H   0  0  0  0  0  0  0  0  0  0  0  0
   20.6578   19.5870   21.4579 C   0  0  0  0  0  0  0  0  0  0  0  0
   20.2112   19.8778   20.5074 H   0  0  0  0  0  0  0  0  0  0  0  0
   20.7102   18.0978   21.7270 C   0  0  0  0  0  0  0  0  0  0  0  0
   21.6707   17.8414   22.1942 H   0  0  0  0  0  0  0  0  0  0  0  0
   20.6744   17.5459   20.7780 H   0  0  0  0  0  0  0  0  0  0  0  0
   19.5597   17.6252   22.6428 C   0  0  0  0  0  0  0  0  0  0  0  0
   19.7083   16.5646   22.8879 H   0  0  0  0  0  0  0  0  0  0  0  0
   19.5937   18.1748   23.5937 H   0  0  0  0  0  0  0  0  0  0  0  0
   18.1726   17.8024   21.9891 C   0  0  0  0  0  0  0  0  0  0  0  0
   18.1114   17.2506   21.0421 H   0  0  0  0  0  0  0  0  0  0  0  0
   17.3827   17.4264   22.6522 H   0  0  0  0  0  0  0  0  0  0  0  0
   17.9638   18.8604   21.7836 H   0  0  0  0  0  0  0  0  0  0  0  0
  1  2  1  0  0  0  0
  1  3  2  0  0  0  0
  1  4  1  0  0  0  0
  4  5  1  0  0  0  0
  4  6  2  0  0  0  0
  6  7  1  0  0  0  0
  6  8  1  0  0  0  0
  8  9  1  0  0  0  0
  8 10  1  0  0  0  0
  8 11  1  0  0  0  0
 11 12  1  0  0  0  0
 11 13  1  0  0  0  0
 11 14  1  0  0  0  0
 14 15  1  0  0  0  0
 14 16  1  0  0  0  0
 14 17  1  0  0  0  0
M  END
> <VConfSearch Rank>
27

> <Conf_Id>
3

> <Delta U+W>
0.531

> <U+W>
-52.878

> <U>
10.067

> <W>
-62.945

> <W(PB)>
-64.982

> <W(SA)>
2.037

> <Valence>
2.779

> <Coulomb>
6.474

> <VdW>
0.815

> <VdW6>
-5.088

> <VdW12>
5.902

> <Bond>
0.078

> <Angle>
2.651

> <Pdih>
0.050

> <Idih>
0.000

> <Tether>
0.000

$$$$
VeraChem MOL file


 17 16  0  0  0  0  0  0  0  0999 V2000     
   18.4473   19.6811   19.5389 C   0  0  0  0  0  0  0  0  0  0  0  0
   17.8229   18.9251   18.8204 O   0  5  0  0  0  0  0  0  0  0  0  0
   18.8618   20.7605   19.1600 O   0  0  0  0  0  0  0  0  0  0  0  0
   18.7002   19.2465   20.9393 C   0  0  0  0  0  0  0  0  0  0  0  0
   18.3025   18.2718   21.2121 H   0  0  0  0  0  0  0  0  0  0  0  0
   19.3814   19.9840   21.8458 C   0  0  0  0  0  0  0  0  0  0  0  0
   19.7865   20.9600   21.5797 H   0  0  0  0  0  0  0  0  0  0  0  0
   19.6397   19.5376   23.2700 C   0  0  0  0  0  0  0  0  0  0  0  0
   18.9615   18.7192   23.5475 H   0  0  0  0  0  0  0  0  0  0  0  0
   19.4121   20.3673   23.9525 H   0  0  0  0  0  0  0  0  0  0  0  0
   21.1031   19.0957   23.4895 C   0  0  0  0  0  0  0  0  0  0  0  0
   21.7824   19.9129   23.2097 H   0  0  0  0  0  0  0  0  0  0  0  0
   21.2638   18.9067   24.5599 H   0  0  0  0  0  0  0  0  0  0  0  0
   21.4649   17.8230   22.6944 C   0  0  0  0  0  0  0  0  0  0  0  0
   21.3783   17.9933   21.6134 H   0  0  0  0  0  0  0  0  0  0  0  0
   22.4978   17.5169   22.9048 H   0  0  0  0  0  0  0  0  0  0  0  0
   20.8026   16.9901   22.9641 H   0  0  0  0  0  0  0  0  0  0  0  0
  1  2  1  0  0  0  0
  1  3  2  0  0  0  0
  1  4  1  0  0  0  0
  4  5  1  0  0  0  0
  4  6  2  0  0  0  0
  6  7  1  0  0  0  0
  6  8  1  0  0  0  0
  8  9  1  0  0  0  0
  8 10  1  0  0  0  0
  8 11  1  0  0  0  0
 11 12  1  0  0  0  0
 11 13  1  0  0  0  0
 11 14  1  0  0  0  0
 14 15  1  0  0  0  0
 14 16  1  0  0  0  0
 14 17  1  0  0  0  0
M  END
> <VConfSearch Rank>
28

> <Conf_Id>
45

> <Delta U+W>
0.562

> <U+W>
-52.846

> <U>
10.243

> <W>
-63.089

> <W(PB)>
-65.116

> <W(SA)>
2.026

> <Valence>
2.822

> <Coulomb>
6.637

> <VdW>
0.785

> <VdW6>
-5.216

> <VdW12>
6.001

> <Bond>
0.080

> <Angle>
2.678

> <Pdih>
0.064

> <Idih>
0.000

> <Tether>
0.000

$$$$
VeraChem MOL file


 17 16  0  0  0  0  0  0  0  0999 V2000     
   19.0301   18.4926   25.0852 C   0  0  0  0  0  0  0  0  0  0  0  0
   18.1099   17.8088   25.4893 O   0  5  0  0  0  0  0  0  0  0  0  0
   19.6396   19.2680   25.7978 O   0  0  0  0  0  0  0  0  0  0  0  0
   19.4103   18.3568   23.6530 C   0  0  0  0  0  0  0  0  0  0  0  0
   18.8259   17.6470   23.0721 H   0  0  0  0  0  0  0  0  0  0  0  0
   20.4112   19.0546   23.0695 C   0  0  0  0  0  0  0  0  0  0  0  0
   21.0015   19.7701   23.6416 H   0  0  0  0  0  0  0  0  0  0  0  0
   20.7900   18.9122   21.6116 C   0  0  0  0  0  0  0  0  0  0  0  0
   20.7128   17.8602   21.3045 H   0  0  0  0  0  0  0  0  0  0  0  0
   21.8408   19.2013   21.4747 H   0  0  0  0  0  0  0  0  0  0  0  0
   19.8930   19.7848   20.7100 C   0  0  0  0  0  0  0  0  0  0  0  0
   18.8416   19.4940   20.8427 H   0  0  0  0  0  0  0  0  0  0  0  0
   19.9735   20.8367   21.0178 H   0  0  0  0  0  0  0  0  0  0  0  0
   20.2789   19.6525   19.2231 C   0  0  0  0  0  0  0  0  0  0  0  0
   21.3174   19.9677   19.0570 H   0  0  0  0  0  0  0  0  0  0  0  0
   20.1770   18.6140   18.8817 H   0  0  0  0  0  0  0  0  0  0  0  0
   19.6303   20.2798   18.5979 H   0  0  0  0  0  0  0  0  0  0  0  0
  1  2  1  0  0  0  0
  1  3  2  0  0  0  0
  1  4  1  0  0  0  0
  4  5  1  0  0  0  0
  4  6  2  0  0  0  0
  6  7  1  0  0  0  0
  6  8  1  0  0  0  0
  8  9  1  0  0  0  0
  8 10  1  0  0  0  0
  8 11  1  0  0  0  0
 11 12  1  0  0  0  0
 11 13  1  0  0  0  0
 11 14  1  0  0  0  0
 14 15  1  0  0  0  0
 14 16  1  0  0  0  0
 14 17  1  0  0  0  0
M  END
> <VConfSearch Rank>
29

> <Conf_Id>
36

> <Delta U+W>
0.000

> <U+W>
-53.409

> <U>
9.048

> <W>
-62.457

> <W(PB)>
-64.540

> <W(SA)>
2.084

> <Valence>
2.652

> <Coulomb>
5.578

> <VdW>
0.818

> <VdW6>
-4.534

> <VdW12>
5.352

> <Bond>
0.063

> <Angle>
2.579

> <Pdih>
0.010

> <Idih>
0.000

> <Tether>
0.000

$$$$
VeraChem MOL file


 17 16  0  0  0  0  0  0  0  0999 V2000     
   18.5870   17.0531   19.6379 C   0  0  0  0  0  0  0  0  0  0  0  0
   17.3918   17.0522   19.8657 O   0  5  0  0  0  0  0  0  0  0  0  0
   19.1124   16.2749   18.8659 O   0  0  0  0  0  0  0  0  0  0  0  0
   19.4645   18.0417   20.3212 C   0  0  0  0  0  0  0  0  0  0  0  0
   20.5222   17.9887   20.0731 H   0  0  0  0  0  0  0  0  0  0  0  0
   19.0169   18.9637   21.2036 C   0  0  0  0  0  0  0  0  0  0  0  0
   17.9597   19.0241   21.4611 H   0  0  0  0  0  0  0  0  0  0  0  0
   19.9164   19.9643   21.8956 C   0  0  0  0  0  0  0  0  0  0  0  0
   19.3296   20.8452   22.1888 H   0  0  0  0  0  0  0  0  0  0  0  0
   20.6878   20.3204   21.1991 H   0  0  0  0  0  0  0  0  0  0  0  0
   20.5847   19.3508   23.1430 C   0  0  0  0  0  0  0  0  0  0  0  0
   19.8112   18.9973   23.8390 H   0  0  0  0  0  0  0  0  0  0  0  0
   21.1756   18.4716   22.8507 H   0  0  0  0  0  0  0  0  0  0  0  0
   21.4962   20.3674   23.8593 C   0  0  0  0  0  0  0  0  0  0  0  0
   20.9234   21.2435   24.1907 H   0  0  0  0  0  0  0  0  0  0  0  0
   21.9622   19.9132   24.7434 H   0  0  0  0  0  0  0  0  0  0  0  0
   22.2978   20.7135   23.1937 H   0  0  0  0  0  0  0  0  0  0  0  0
  1  2  1  0  0  0  0
  1  3  2  0  0  0  0
  1  4  1  0  0  0  0
  4  5  1  0  0  0  0
  4  6  2  0  0  0  0
  6  7  1  0  0  0  0
  6  8  1  0  0  0  0
  8  9  1  0  0  0  0
  8 10  1  0  0  0  0
  8 11  1  0  0  0  0
 11 12  1  0  0  0  0
 11 13  1  0  0  0  0
 11 14  1  0  0  0  0
 14 15  1  0  0  0  0
 14 16  1  0  0  0  0
 14 17  1  0  0  0  0
M  END
> <VConfSearch Rank>
30

> <Conf_Id>
1

> <Delta U+W>
0.030

> <U+W>
-53.378

> <U>
9.048

> <W>
-62.426

> <W(PB)>
-64.506

> <W(SA)>
2.080

> <Valence>
2.652

> <Coulomb>
5.578

> <VdW>
0.818

> <VdW6>
-4.535

> <VdW12>
5.352

> <Bond>
0.063

> <Angle>
2.579

> <Pdih>
0.010

> <Idih>
0.000

> <Tether>
0.000

$$$$
VeraChem MOL file


 17 16  0  0  0  0  0  0  0  0999 V2000     
   17.5245   18.9067   20.2456 C   0  0  0  0  0  0  0  0  0  0  0  0
   17.1231   17.7958   20.5374 O   0  5  0  0  0  0  0  0  0  0  0  0
   16.8410   19.7218   19.6572 O   0  0  0  0  0  0  0  0  0  0  0  0
   18.9102   19.3074   20.6111 C   0  0  0  0  0  0  0  0  0  0  0  0
   19.2059   20.3127   20.3202 H   0  0  0  0  0  0  0  0  0  0  0  0
   19.7788   18.5044   21.2666 C   0  0  0  0  0  0  0  0  0  0  0  0
   19.4917   17.4965   21.5657 H   0  0  0  0  0  0  0  0  0  0  0  0
   21.1864   18.9205   21.6386 C   0  0  0  0  0  0  0  0  0  0  0  0
   21.6336   19.4878   20.8111 H   0  0  0  0  0  0  0  0  0  0  0  0
   21.8149   18.0301   21.7743 H   0  0  0  0  0  0  0  0  0  0  0  0
   21.2254   19.7803   22.9211 C   0  0  0  0  0  0  0  0  0  0  0  0
   22.2514   20.1390   23.0821 H   0  0  0  0  0  0  0  0  0  0  0  0
   20.5983   20.6728   22.7880 H   0  0  0  0  0  0  0  0  0  0  0  0
   20.7617   19.0008   24.1701 C   0  0  0  0  0  0  0  0  0  0  0  0
   21.3832   18.1102   24.3303 H   0  0  0  0  0  0  0  0  0  0  0  0
   20.8339   19.6301   25.0666 H   0  0  0  0  0  0  0  0  0  0  0  0
   19.7176   18.6768   24.0698 H   0  0  0  0  0  0  0  0  0  0  0  0
  1  2  1  0  0  0  0
  1  3  2  0  0  0  0
  1  4  1  0  0  0  0
  4  5  1  0  0  0  0
  4  6  2  0  0  0  0
  6  7  1  0  0  0  0
  6  8  1  0  0  0  0
  8  9  1  0  0  0  0
  8 10  1  0  0  0  0
  8 11  1  0  0  0  0
 11 12  1  0  0  0  0
 11 13  1  0  0  0  0
 11 14  1  0  0  0  0
 14 15  1  0  0  0  0
 14 16  1  0  0  0  0
 14 17  1  0  0  0  0
M  END
> <VConfSearch Rank>
31

> <Conf_Id>
3

> <Delta U+W>
0.531

> <U+W>
-52.878

> <U>
10.067

> <W>
-62.945

> <W(PB)>
-64.982

> <W(SA)>
2.037

> <Valence>
2.779

> <Coulomb>
6.474

> <VdW>
0.815

> <VdW6>
-5.088

> <VdW12>
5.902

> <Bond>
0.078

> <Angle>
2.651

> <Pdih>
0.050

> <Idih>
0.000

> <Tether>
0.000

$$$$
VeraChem MOL file


 17 16  0  0  0  0  0  0  0  0999 V2000     
   21.9584   20.4680   20.2546 C   0  0  0  0  0  0  0  0  0  0  0  0
   21.7924   20.9456   19.1491 O   0  5  0  0  0  0  0  0  0  0  0  0
   23.0525   20.1426   20.6759 O   0  0  0  0  0  0  0  0  0  0  0  0
   20.7562   20.2863   21.1124 C   0  0  0  0  0  0  0  0  0  0  0  0
   19.8105   20.5976   20.6750 H   0  0  0  0  0  0  0  0  0  0  0  0
   20.7927   19.7660   22.3605 C   0  0  0  0  0  0  0  0  0  0  0  0
   21.7355   19.4482   22.8050 H   0  0  0  0  0  0  0  0  0  0  0  0
   19.5667   19.5797   23.2303 C   0  0  0  0  0  0  0  0  0  0  0  0
   18.7311   20.1861   22.8553 H   0  0  0  0  0  0  0  0  0  0  0  0
   19.7842   19.9513   24.2405 H   0  0  0  0  0  0  0  0  0  0  0  0
   19.1334   18.1002   23.3234 C   0  0  0  0  0  0  0  0  0  0  0  0
   19.9696   17.4925   23.6959 H   0  0  0  0  0  0  0  0  0  0  0  0
   18.3256   18.0091   24.0625 H   0  0  0  0  0  0  0  0  0  0  0  0
   18.6438   17.5386   21.9715 C   0  0  0  0  0  0  0  0  0  0  0  0
   19.4461   17.5535   21.2224 H   0  0  0  0  0  0  0  0  0  0  0  0
   18.3080   16.4996   22.0839 H   0  0  0  0  0  0  0  0  0  0  0  0
   17.8021   18.1270   21.5836 H   0  0  0  0  0  0  0  0  0  0  0  0
  1  2  1  0  0  0  0
  1  3  2  0  0  0  0
  1  4  1  0  0  0  0
  4  5  1  0  0  0  0
  4  6  2  0  0  0  0
  6  7  1  0  0  0  0
  6  8  1  0  0  0  0
  8  9  1  0  0  0  0
  8 10  1  0  0  0  0
  8 11  1  0  0  0  0
 11 12  1  0  0  0  0
 11 13  1  0  0  0  0
 11 14  1  0  0  0  0
 14 15  1  0  0  0  0
 14 16  1  0  0  0  0
 14 17  1  0  0  0  0
M  END
> <VConfSearch Rank>
32

> <Conf_Id>
45

> <Delta U+W>
0.562

> <U+W>
-52.846

> <U>
10.243

> <W>
-63.089

> <W(PB)>
-65.116

> <W(SA)>
2.026

> <Valence>
2.822

> <Coulomb>
6.637

> <VdW>
0.785

> <VdW6>
-5.216

> <VdW12>
6.001

> <Bond>
0.080

> <Angle>
2.678

> <Pdih>
0.064

> <Idih>
0.000

> <Tether>
0.000

$$$$
VeraChem MOL file


 17 16  0  0  0  0  0  0  0  0999 V2000     
   22.3789   18.5231   24.2228 C   0  0  0  0  0  0  0  0  0  0  0  0
   23.3977   17.8673   24.1252 O   0  5  0  0  0  0  0  0  0  0  0  0
   21.9379   18.9035   25.2910 O   0  0  0  0  0  0  0  0  0  0  0  0
   21.6579   18.8642   22.9666 C   0  0  0  0  0  0  0  0  0  0  0  0
   22.1052   18.4938   22.0471 H   0  0  0  0  0  0  0  0  0  0  0  0
   20.5142   19.5850   22.9259 C   0  0  0  0  0  0  0  0  0  0  0  0
   20.0562   19.9591   23.8414 H   0  0  0  0  0  0  0  0  0  0  0  0
   19.7860   19.9258   21.6442 C   0  0  0  0  0  0  0  0  0  0  0  0
   20.5101   20.1528   20.8498 H   0  0  0  0  0  0  0  0  0  0  0  0
   19.1883   20.8354   21.7915 H   0  0  0  0  0  0  0  0  0  0  0  0
   18.8668   18.7711   21.1962 C   0  0  0  0  0  0  0  0  0  0  0  0
   19.4639   17.8612   21.0444 H   0  0  0  0  0  0  0  0  0  0  0  0
   18.1422   18.5473   21.9915 H   0  0  0  0  0  0  0  0  0  0  0  0
   18.1136   19.1143   19.8953 C   0  0  0  0  0  0  0  0  0  0  0  0
   17.4832   20.0032   20.0290 H   0  0  0  0  0  0  0  0  0  0  0  0
   18.8162   19.3123   19.0751 H   0  0  0  0  0  0  0  0  0  0  0  0
   17.4654   18.2817   19.5925 H   0  0  0  0  0  0  0  0  0  0  0  0
  1  2  1  0  0  0  0
  1  3  2  0  0  0  0
  1  4  1  0  0  0  0
  4  5  1  0  0  0  0
  4  6  2  0  0  0  0
  6  7  1  0  0  0  0
  6  8  1  0  0  0  0
  8  9  1  0  0  0  0
  8 10  1  0  0  0  0
  8 11  1  0  0  0  0
 11 12  1  0  0  0  0
 11 13  1  0  0  0  0
 11 14  1  0  0  0  0
 14 15  1  0  0  0  0
 14 16  1  0  0  0  0
 14 17  1  0  0  0  0
M  END
> <VConfSearch Rank>
33

> <Conf_Id>
36

> <Delta U+W>
0.000

> <U+W>
-53.409

> <U>
9.048

> <W>
-62.457

> <W(PB)>
-64.540

> <W(SA)>
2.084

> <Valence>
2.652

> <Coulomb>
5.578

> <VdW>
0.818

> <VdW6>
-4.534

> <VdW12>
5.352

> <Bond>
0.063

> <Angle>
2.579

> <Pdih>
0.010

> <Idih>
0.000

> <Tether>
0.000

$$$$
VeraChem MOL file


 17 16  0  0  0  0  0  0  0  0999 V2000     
   23.0831   17.7101   22.1265 C   0  0  0  0  0  0  0  0  0  0  0  0
   22.9270   16.5603   22.4929 O   0  5  0  0  0  0  0  0  0  0  0  0
   24.1733   18.2459   22.0805 O   0  0  0  0  0  0  0  0  0  0  0  0
   21.9031   18.5154   21.7103 C   0  0  0  0  0  0  0  0  0  0  0  0
   22.1119   19.5348   21.3940 H   0  0  0  0  0  0  0  0  0  0  0  0
   20.6337   18.0489   21.7121 C   0  0  0  0  0  0  0  0  0  0  0  0
   20.4129   17.0298   22.0292 H   0  0  0  0  0  0  0  0  0  0  0  0
   19.4389   18.8752   21.2890 C   0  0  0  0  0  0  0  0  0  0  0  0
   18.6323   18.2100   20.9524 H   0  0  0  0  0  0  0  0  0  0  0  0
   19.7036   19.5053   20.4290 H   0  0  0  0  0  0  0  0  0  0  0  0
   18.9295   19.7598   22.4453 C   0  0  0  0  0  0  0  0  0  0  0  0
   18.6634   19.1271   23.3035 H   0  0  0  0  0  0  0  0  0  0  0  0
   19.7342   20.4289   22.7806 H   0  0  0  0  0  0  0  0  0  0  0  0
   17.7059   20.5984   22.0248 C   0  0  0  0  0  0  0  0  0  0  0  0
   16.8743   19.9521   21.7146 H   0  0  0  0  0  0  0  0  0  0  0  0
   17.3581   21.2206   22.8597 H   0  0  0  0  0  0  0  0  0  0  0  0
   17.9544   21.2633   21.1872 H   0  0  0  0  0  0  0  0  0  0  0  0
  1  2  1  0  0  0  0
  1  3  2  0  0  0  0
  1  4  1  0  0  0  0
  4  5  1  0  0  0  0
  4  6  2  0  0  0  0
  6  7  1  0  0  0  0
  6  8  1  0  0  0  0
  8  9  1  0  0  0  0
  8 10  1  0  0  0  0
  8 11  1  0  0  0  0
 11 12  1  0  0  0  0
 11 13  1  0  0  0  0
 11 14  1  0  0  0  0
 14 15  1  0  0  0  0
 14 16  1  0  0  0  0
 14 17  1  0  0  0  0
M  END
> <VConfSearch Rank>
34

> <Conf_Id>
1

> <Delta U+W>
0.030

> <U+W>
-53.378

> <U>
9.048

> <W>
-62.426

> <W(PB)>
-64.506

> <W(SA)>
2.080

> <Valence>
2.652

> <Coulomb>
5.578

> <VdW>
0.818

> <VdW6>
-4.535

> <VdW12>
5.352

> <Bond>
0.063

> <Angle>
2.579

> <Pdih>
0.010

> <Idih>
0.000

> <Tether>
0.000

$$$$
VeraChem MOL file


 17 16  0  0  0  0  0  0  0  0999 V2000     
   18.3610   18.0919   19.6488 C   0  0  0  0  0  0  0  0  0  0  0  0
   17.3311   17.7700   20.2112 O   0  5  0  0  0  0  0  0  0  0  0  0
   18.4362   18.2419   18.4448 O   0  0  0  0  0  0  0  0  0  0  0  0
   19.5965   18.3141   20.4476 C   0  0  0  0  0  0  0  0  0  0  0  0
   20.4817   18.5987   19.8835 H   0  0  0  0  0  0  0  0  0  0  0  0
   19.6581   18.1844   21.7924 C   0  0  0  0  0  0  0  0  0  0  0  0
   18.7764   17.9030   22.3678 H   0  0  0  0  0  0  0  0  0  0  0  0
   20.9184   18.4160   22.5991 C   0  0  0  0  0  0  0  0  0  0  0  0
   21.7802   17.9926   22.0656 H   0  0  0  0  0  0  0  0  0  0  0  0
   20.8544   17.8768   23.5539 H   0  0  0  0  0  0  0  0  0  0  0  0
   21.1765   19.9147   22.8688 C   0  0  0  0  0  0  0  0  0  0  0  0
   22.1517   20.0282   23.3621 H   0  0  0  0  0  0  0  0  0  0  0  0
   21.2423   20.4567   21.9152 H   0  0  0  0  0  0  0  0  0  0  0  0
   20.0855   20.5526   23.7550 C   0  0  0  0  0  0  0  0  0  0  0  0
   20.0105   20.0342   24.7198 H   0  0  0  0  0  0  0  0  0  0  0  0
   20.3176   21.6069   23.9539 H   0  0  0  0  0  0  0  0  0  0  0  0
   19.1035   20.5108   23.2661 H   0  0  0  0  0  0  0  0  0  0  0  0
  1  2  1  0  0  0  0
  1  3  2  0  0  0  0
  1  4  1  0  0  0  0
  4  5  1  0  0  0  0
  4  6  2  0  0  0  0
  6  7  1  0  0  0  0
  6  8  1  0  0  0  0
  8  9  1  0  0  0  0
  8 10  1  0  0  0  0
  8 11  1  0  0  0  0
 11 12  1  0  0  0  0
 11 13  1  0  0  0  0
 11 14  1  0  0  0  0
 14 15  1  0  0  0  0
 14 16  1  0  0  0  0
 14 17  1  0  0  0  0
M  END
> <VConfSearch Rank>
35

> <Conf_Id>
3

> <Delta U+W>
0.531

> <U+W>
-52.878

> <U>
10.067

> <W>
-62.945

> <W(PB)>
-64.982

> <W(SA)>
2.037

> <Valence>
2.779

> <Coulomb>
6.474

> <VdW>
0.815

> <VdW6>
-5.088

> <VdW12>
5.902

> <Bond>
0.078

> <Angle>
2.651

> <Pdih>
0.050

> <Idih>
0.000

> <Tether>
0.000

$$$$
VeraChem MOL file


 17 16  0  0  0  0  0  0  0  0999 V2000     
   20.8035   17.2874   19.8070 C   0  0  0  0  0  0  0  0  0  0  0  0
   20.2573   17.0835   18.7403 O   0  5  0  0  0  0  0  0  0  0  0  0
   21.6077   16.5157   20.2951 O   0  0  0  0  0  0  0  0  0  0  0  0
   20.4596   18.5437   20.5263 C   0  0  0  0  0  0  0  0  0  0  0  0
   19.7346   19.1880   20.0346 H   0  0  0  0  0  0  0  0  0  0  0  0
   20.9881   18.8972   21.7202 C   0  0  0  0  0  0  0  0  0  0  0  0
   21.7124   18.2557   22.2216 H   0  0  0  0  0  0  0  0  0  0  0  0
   20.6339   20.1756   22.4514 C   0  0  0  0  0  0  0  0  0  0  0  0
   20.1568   20.8918   21.7687 H   0  0  0  0  0  0  0  0  0  0  0  0
   21.5574   20.6560   22.8012 H   0  0  0  0  0  0  0  0  0  0  0  0
   19.7116   19.9211   23.6638 C   0  0  0  0  0  0  0  0  0  0  0  0
   20.1869   19.2027   24.3460 H   0  0  0  0  0  0  0  0  0  0  0  0
   19.5930   20.8572   24.2267 H   0  0  0  0  0  0  0  0  0  0  0  0
   18.3175   19.4026   23.2510 C   0  0  0  0  0  0  0  0  0  0  0  0
   18.3904   18.4334   22.7406 H   0  0  0  0  0  0  0  0  0  0  0  0
   17.6778   19.2707   24.1332 H   0  0  0  0  0  0  0  0  0  0  0  0
   17.8203   20.1095   22.5741 H   0  0  0  0  0  0  0  0  0  0  0  0
  1  2  1  0  0  0  0
  1  3  2  0  0  0  0
  1  4  1  0  0  0  0
  4  5  1  0  0  0  0
  4  6  2  0  0  0  0
  6  7  1  0  0  0  0
  6  8  1  0  0  0  0
  8  9  1  0  0  0  0
  8 10  1  0  0  0  0
  8 11  1  0  0  0  0
 11 12  1  0  0  0  0
 11 13  1  0  0  0  0
 11 14  1  0  0  0  0
 14 15  1  0  0  0  0
 14 16  1  0  0  0  0
 14 17  1  0  0  0  0
M  END
> <VConfSearch Rank>
36

> <Conf_Id>
45

> <Delta U+W>
0.562

> <U+W>
-52.846

> <U>
10.243

> <W>
-63.089

> <W(PB)>
-65.116

> <W(SA)>
2.026

> <Valence>
2.822

> <Coulomb>
6.637

> <VdW>
0.785

> <VdW6>
-5.216

> <VdW12>
6.001

> <Bond>
0.080

> <Angle>
2.678

> <Pdih>
0.064

> <Idih>
0.000

> <Tether>
0.000

$$$$
VeraChem MOL file


 17 16  0  0  0  0  0  0  0  0999 V2000     
   20.8535   17.6720   18.9898 C   0  0  0  0  0  0  0  0  0  0  0  0
   20.4870   17.9394   17.8621 O   0  5  0  0  0  0  0  0  0  0  0  0
   21.4501   16.6480   19.2652 O   0  0  0  0  0  0  0  0  0  0  0  0
   20.5487   18.6563   20.0633 C   0  0  0  0  0  0  0  0  0  0  0  0
   20.0135   19.5498   19.7500 H   0  0  0  0  0  0  0  0  0  0  0  0
   20.8948   18.4888   21.3600 C   0  0  0  0  0  0  0  0  0  0  0  0
   21.4291   17.5963   21.6852 H   0  0  0  0  0  0  0  0  0  0  0  0
   20.5791   19.4938   22.4460 C   0  0  0  0  0  0  0  0  0  0  0  0
   20.6977   20.5150   22.0587 H   0  0  0  0  0  0  0  0  0  0  0  0
   21.2997   19.3857   23.2679 H   0  0  0  0  0  0  0  0  0  0  0  0
   19.1470   19.3054   22.9869 C   0  0  0  0  0  0  0  0  0  0  0  0
   18.4246   19.4174   22.1665 H   0  0  0  0  0  0  0  0  0  0  0  0
   19.0315   18.2840   23.3756 H   0  0  0  0  0  0  0  0  0  0  0  0
   18.8206   20.3201   24.1011 C   0  0  0  0  0  0  0  0  0  0  0  0
   19.5094   20.2081   24.9487 H   0  0  0  0  0  0  0  0  0  0  0  0
   18.8987   21.3502   23.7294 H   0  0  0  0  0  0  0  0  0  0  0  0
   17.7986   20.1706   24.4730 H   0  0  0  0  0  0  0  0  0  0  0  0
  1  2  1  0  0  0  0
  1  3  2  0  0  0  0
  1  4  1  0  0  0  0
  4  5  1  0  0  0  0
  4  6  2  0  0  0  0
  6  7  1  0  0  0  0
  6  8  1  0  0  0  0
  8  9  1  0  0  0  0
  8 10  1  0  0  0  0
  8 11  1  0  0  0  0
 11 12  1  0  0  0  0
 11 13  1  0  0  0  0
 11 14  1  0  0  0  0
 14 15  1  0  0  0  0
 14 16  1  0  0  0  0
 14 17  1  0  0  0  0
M  END
> <VConfSearch Rank>
37

> <Conf_Id>
36

> <Delta U+W>
0.000

> <U+W>
-53.409

> <U>
9.048

> <W>
-62.457

> <W(PB)>
-64.540

> <W(SA)>
2.084

> <Valence>
2.652

> <Coulomb>
5.578

> <VdW>
0.818

> <VdW6>
-4.534

> <VdW12>
5.352

> <Bond>
0.063

> <Angle>
2.579

> <Pdih>
0.010

> <Idih>
0.000

> <Tether>
0.000

$$$$
VeraChem MOL file


 17 16  0  0  0  0  0  0  0  0999 V2000     
   23.0835   18.1389   20.8911 C   0  0  0  0  0  0  0  0  0  0  0  0
   23.8870   18.7877   21.5345 O   0  5  0  0  0  0  0  0  0  0  0  0
   23.3988   17.4612   19.9325 O   0  0  0  0  0  0  0  0  0  0  0  0
   21.6463   18.1588   21.2762 C   0  0  0  0  0  0  0  0  0  0  0  0
   20.9816   17.5575   20.6602 H   0  0  0  0  0  0  0  0  0  0  0  0
   21.1548   18.8678   22.3177 C   0  0  0  0  0  0  0  0  0  0  0  0
   21.8115   19.4753   22.9401 H   0  0  0  0  0  0  0  0  0  0  0  0
   19.6913   18.8841   22.7014 C   0  0  0  0  0  0  0  0  0  0  0  0
   19.5932   19.1317   23.7670 H   0  0  0  0  0  0  0  0  0  0  0  0
   19.2580   17.8829   22.5721 H   0  0  0  0  0  0  0  0  0  0  0  0
   18.9008   19.9062   21.8591 C   0  0  0  0  0  0  0  0  0  0  0  0
   19.3347   20.9070   21.9918 H   0  0  0  0  0  0  0  0  0  0  0  0
   18.9945   19.6574   20.7929 H   0  0  0  0  0  0  0  0  0  0  0  0
   17.4097   19.9354   22.2507 C   0  0  0  0  0  0  0  0  0  0  0  0
   17.2858   20.2130   23.3057 H   0  0  0  0  0  0  0  0  0  0  0  0
   16.8642   20.6677   21.6413 H   0  0  0  0  0  0  0  0  0  0  0  0
   16.9440   18.9531   22.0975 H   0  0  0  0  0  0  0  0  0  0  0  0
  1  2  1  0  0  0  0
  1  3  2  0  0  0  0
  1  4  1  0  0  0  0
  4  5  1  0  0  0  0
  4  6  2  0  0  0  0
  6  7  1  0  0  0  0
  6  8  1  0  0  0  0
  8  9  1  0  0  0  0
  8 10  1  0  0  0  0
  8 11  1  0  0  0  0
 11 12  1  0  0  0  0
 11 13  1  0  0  0  0
 11 14  1  0  0  0  0
 14 15  1  0  0  0  0
 14 16  1  0  0  0  0
 14 17  1  0  0  0  0
M  END
> <VConfSearch Rank>
38

> <Conf_Id>
1

> <Delta U+W>
0.030

> <U+W>
-53.378

> <U>
9.048

> <W>
-62.426

> <W(PB)>
-64.506

> <W(SA)>
2.080

> <Valence>
2.652

> <Coulomb>
5.578

> <VdW>
0.818

> <VdW6>
-4.535

> <VdW12>
5.352

> <Bond>
0.063

> <Angle>
2.579

> <Pdih>
0.010

> <Idih>
0.000

> <Tether>
0.000

$$$$
VeraChem MOL file


 17 16  0  0  0  0  0  0  0  0999 V2000     
   21.4105   16.3744   22.4914 C   0  0  0  0  0  0  0  0  0  0  0  0
   20.6296   15.8500   23.2633 O   0  5  0  0  0  0  0  0  0  0  0  0
   22.2645   15.7510   21.8916 O   0  0  0  0  0  0  0  0  0  0  0  0
   21.3392   17.8422   22.2573 C   0  0  0  0  0  0  0  0  0  0  0  0
   22.0660   18.2470   21.5568 H   0  0  0  0  0  0  0  0  0  0  0  0
   20.4407   18.6578   22.8543 C   0  0  0  0  0  0  0  0  0  0  0  0
   19.7059   18.2622   23.5552 H   0  0  0  0  0  0  0  0  0  0  0  0
   20.3716   20.1503   22.6081 C   0  0  0  0  0  0  0  0  0  0  0  0
   21.3885   20.5622   22.5547 H   0  0  0  0  0  0  0  0  0  0  0  0
   19.8847   20.6464   23.4584 H   0  0  0  0  0  0  0  0  0  0  0  0
   19.6161   20.4968   21.3063 C   0  0  0  0  0  0  0  0  0  0  0  0
   19.6889   21.5781   21.1257 H   0  0  0  0  0  0  0  0  0  0  0  0
   20.1018   20.0028   20.4534 H   0  0  0  0  0  0  0  0  0  0  0  0
   18.1271   20.0937   21.3615 C   0  0  0  0  0  0  0  0  0  0  0  0
   17.6177   20.5862   22.2001 H   0  0  0  0  0  0  0  0  0  0  0  0
   17.6141   20.3842   20.4356 H   0  0  0  0  0  0  0  0  0  0  0  0
   18.0148   19.0083   21.4819 H   0  0  0  0  0  0  0  0  0  0  0  0
  1  2  1  0  0  0  0
  1  3  2  0  0  0  0
  1  4  1  0  0  0  0
  4  5  1  0  0  0  0
  4  6  2  0  0  0  0
  6  7  1  0  0  0  0
  6  8  1  0  0  0  0
  8  9  1  0  0  0  0
  8 10  1  0  0  0  0
  8 11  1  0  0  0  0
 11 12  1  0  0  0  0
 11 13  1  0  0  0  0
 11 14  1  0  0  0  0
 14 15  1  0  0  0  0
 14 16  1  0  0  0  0
 14 17  1  0  0  0  0
M  END
> <VConfSearch Rank>
39

> <Conf_Id>
3

> <Delta U+W>
0.531

> <U+W>
-52.878

> <U>
10.067

> <W>
-62.945

> <W(PB)>
-64.982

> <W(SA)>
2.037

> <Valence>
2.779

> <Coulomb>
6.474

> <VdW>
0.815

> <VdW6>
-5.088

> <VdW12>
5.902

> <Bond>
0.078

> <Angle>
2.651

> <Pdih>
0.050

> <Idih>
0.000

> <Tether>
0.000

$$$$
VeraChem MOL file


 17 16  0  0  0  0  0  0  0  0999 V2000     
   19.9067   22.1121   22.2700 C   0  0  0  0  0  0  0  0  0  0  0  0
   19.0495   22.8920   21.9028 O   0  5  0  0  0  0  0  0  0  0  0  0
   21.0610   22.4435   22.4655 O   0  0  0  0  0  0  0  0  0  0  0  0
   19.5013   20.6968   22.4858 C   0  0  0  0  0  0  0  0  0  0  0  0
   18.4556   20.4688   22.2930 H   0  0  0  0  0  0  0  0  0  0  0  0
   20.3489   19.7235   22.8905 C   0  0  0  0  0  0  0  0  0  0  0  0
   21.3990   19.9426   23.0824 H   0  0  0  0  0  0  0  0  0  0  0  0
   19.9338   18.2829   23.1067 C   0  0  0  0  0  0  0  0  0  0  0  0
   18.8416   18.2045   23.1942 H   0  0  0  0  0  0  0  0  0  0  0  0
   20.3426   17.9319   24.0636 H   0  0  0  0  0  0  0  0  0  0  0  0
   20.4320   17.3537   21.9783 C   0  0  0  0  0  0  0  0  0  0  0  0
   21.5242   17.4335   21.8883 H   0  0  0  0  0  0  0  0  0  0  0  0
   20.2149   16.3115   22.2501 H   0  0  0  0  0  0  0  0  0  0  0  0
   19.7736   17.6661   20.6175 C   0  0  0  0  0  0  0  0  0  0  0  0
   20.0221   18.6809   20.2809 H   0  0  0  0  0  0  0  0  0  0  0  0
   20.1212   16.9626   19.8499 H   0  0  0  0  0  0  0  0  0  0  0  0
   18.6808   17.5847   20.6823 H   0  0  0  0  0  0  0  0  0  0  0  0
  1  2  1  0  0  0  0
  1  3  2  0  0  0  0
  1  4  1  0  0  0  0
  4  5  1  0  0  0  0
  4  6  2  0  0  0  0
  6  7  1  0  0  0  0
  6  8  1  0  0  0  0
  8  9  1  0  0  0  0
  8 10  1  0  0  0  0
  8 11  1  0  0  0  0
 11 12  1  0  0  0  0
 11 13  1  0  0  0  0
 11 14  1  0  0  0  0
 14 15  1  0  0  0  0
 14 16  1  0  0  0  0
 14 17  1  0  0  0  0
M  END
> <VConfSearch Rank>
40

> <Conf_Id>
45

> <Delta U+W>
0.562

> <U+W>
-52.846

> <U>
10.243

> <W>
-63.089

> <W(PB)>
-65.116

> <W(SA)>
2.026

> <Valence>
2.822

> <Coulomb>
6.637

> <VdW>
0.785

> <VdW6>
-5.216

> <VdW12>
6.001

> <Bond>
0.080

> <Angle>
2.678

> <Pdih>
0.064

> <Idih>
0.000

> <Tether>
0.000

$$$$
VeraChem MOL file


 17 16  0  0  0  0  0  0  0  0999 V2000     
   21.5037   20.3903   19.1792 C   0  0  0  0  0  0  0  0  0  0  0  0
   22.6656   20.3048   18.8320 O   0  5  0  0  0  0  0  0  0  0  0  0
   20.7196   21.1723   18.6752 O   0  0  0  0  0  0  0  0  0  0  0  0
   21.0435   19.4878   20.2690 C   0  0  0  0  0  0  0  0  0  0  0  0
   21.7940   18.8137   20.6756 H   0  0  0  0  0  0  0  0  0  0  0  0
   19.7815   19.4754   20.7550 C   0  0  0  0  0  0  0  0  0  0  0  0
   19.0223   20.1482   20.3565 H   0  0  0  0  0  0  0  0  0  0  0  0
   19.3222   18.5557   21.8651 C   0  0  0  0  0  0  0  0  0  0  0  0
   19.7891   17.5678   21.7518 H   0  0  0  0  0  0  0  0  0  0  0  0
   18.2377   18.3995   21.7883 H   0  0  0  0  0  0  0  0  0  0  0  0
   19.6629   19.1363   23.2529 C   0  0  0  0  0  0  0  0  0  0  0  0
   20.7481   19.2894   23.3330 H   0  0  0  0  0  0  0  0  0  0  0  0
   19.1931   20.1235   23.3647 H   0  0  0  0  0  0  0  0  0  0  0  0
   19.1894   18.2092   24.3903 C   0  0  0  0  0  0  0  0  0  0  0  0
   18.1017   18.0647   24.3526 H   0  0  0  0  0  0  0  0  0  0  0  0
   19.6689   17.2240   24.3194 H   0  0  0  0  0  0  0  0  0  0  0  0
   19.4405   18.6384   25.3690 H   0  0  0  0  0  0  0  0  0  0  0  0
  1  2  1  0  0  0  0
  1  3  2  0  0  0  0
  1  4  1  0  0  0  0
  4  5  1  0  0  0  0
  4  6  2  0  0  0  0
  6  7  1  0  0  0  0
  6  8  1  0  0  0  0
  8  9  1  0  0  0  0
  8 10  1  0  0  0  0
  8 11  1  0  0  0  0
 11 12  1  0  0  0  0
 11 13  1  0  0  0  0
 11 14  1  0  0  0  0
 14 15  1  0  0  0  0
 14 16  1  0  0  0  0
 14 17  1  0  0  0  0
M  END
> <VConfSearch Rank>
41

> <Conf_Id>
36

> <Delta U+W>
0.000

> <U+W>
-53.409

> <U>
9.048

> <W>
-62.457

> <W(PB)>
-64.540

> <W(SA)>
2.084

> <Valence>
2.652

> <Coulomb>
5.578

> <VdW>
0.818

> <VdW6>
-4.534

> <VdW12>
5.352

> <Bond>
0.063

> <Angle>
2.579

> <Pdih>
0.010

> <Idih>
0.000

> <Tether>
0.000

$$$$
VeraChem MOL file


 17 16  0  0  0  0  0  0  0  0999 V2000     
   21.3506   16.2573   20.6692 C   0  0  0  0  0  0  0  0  0  0  0  0
   22.0304   15.7705   21.5531 O   0  5  0  0  0  0  0  0  0  0  0  0
   21.3755   15.8577   19.5214 O   0  0  0  0  0  0  0  0  0  0  0  0
   20.4399   17.3916   20.9827 C   0  0  0  0  0  0  0  0  0  0  0  0
   19.8607   17.7799   20.1481 H   0  0  0  0  0  0  0  0  0  0  0  0
   20.3116   17.9371   22.2136 C   0  0  0  0  0  0  0  0  0  0  0  0
   20.8887   17.5573   23.0565 H   0  0  0  0  0  0  0  0  0  0  0  0
   19.3844   19.0919   22.5236 C   0  0  0  0  0  0  0  0  0  0  0  0
   19.1144   19.0712   23.5881 H   0  0  0  0  0  0  0  0  0  0  0  0
   18.4470   18.9823   21.9613 H   0  0  0  0  0  0  0  0  0  0  0  0
   20.0401   20.4459   22.1836 C   0  0  0  0  0  0  0  0  0  0  0  0
   20.9763   20.5541   22.7488 H   0  0  0  0  0  0  0  0  0  0  0  0
   20.3071   20.4698   21.1179 H   0  0  0  0  0  0  0  0  0  0  0  0
   19.1048   21.6287   22.5054 C   0  0  0  0  0  0  0  0  0  0  0  0
   18.8472   21.6470   23.5726 H   0  0  0  0  0  0  0  0  0  0  0  0
   19.5881   22.5826   22.2572 H   0  0  0  0  0  0  0  0  0  0  0  0
   18.1729   21.5609   21.9288 H   0  0  0  0  0  0  0  0  0  0  0  0
  1  2  1  0  0  0  0
  1  3  2  0  0  0  0
  1  4  1  0  0  0  0
  4  5  1  0  0  0  0
  4  6  2  0  0  0  0
  6  7  1  0  0  0  0
  6  8  1  0  0  0  0
  8  9  1  0  0  0  0
  8 10  1  0  0  0  0
  8 11  1  0  0  0  0
 11 12  1  0  0  0  0
 11 13  1  0  0  0  0
 11 14  1  0  0  0  0
 14 15  1  0  0  0  0
 14 16  1  0  0  0  0
 14 17  1  0  0  0  0
M  END
> <VConfSearch Rank>
42

> <Conf_Id>
1

> <Delta U+W>
0.030

> <U+W>
-53.378

> <U>
9.048

> <W>
-62.426

> <W(PB)>
-64.506

> <W(SA)>
2.080

> <Valence>
2.652

> <Coulomb>
5.578

> <VdW>
0.818

> <VdW6>
-4.535

> <VdW12>
5.352

> <Bond>
0.063

> <Angle>
2.579

> <Pdih>
0.010

> <Idih>
0.000

> <Tether>
0.000

$$$$
VeraChem MOL file


 17 16  0  0  0  0  0  0  0  0999 V2000     
   20.8139   21.4707   20.2652 C   0  0  0  0  0  0  0  0  0  0  0  0
   21.8045   21.8628   20.8530 O   0  5  0  0  0  0  0  0  0  0  0  0
   20.5439   21.8084   19.1291 O   0  0  0  0  0  0  0  0  0  0  0  0
   19.8750   20.5391   20.9469 C   0  0  0  0  0  0  0  0  0  0  0  0
   19.0096   20.2281   20.3661 H   0  0  0  0  0  0  0  0  0  0  0  0
   20.0504   20.0806   22.2070 C   0  0  0  0  0  0  0  0  0  0  0  0
   20.9155   20.3831   22.7966 H   0  0  0  0  0  0  0  0  0  0  0  0
   19.0923   19.1295   22.8929 C   0  0  0  0  0  0  0  0  0  0  0  0
   18.0581   19.4147   22.6570 H   0  0  0  0  0  0  0  0  0  0  0  0
   19.1937   19.2197   23.9828 H   0  0  0  0  0  0  0  0  0  0  0  0
   19.3208   17.6609   22.4729 C   0  0  0  0  0  0  0  0  0  0  0  0
   18.5351   17.0340   22.9166 H   0  0  0  0  0  0  0  0  0  0  0  0
   19.2188   17.5672   21.3829 H   0  0  0  0  0  0  0  0  0  0  0  0
   20.7006   17.1275   22.9137 C   0  0  0  0  0  0  0  0  0  0  0  0
   20.8200   17.1997   24.0026 H   0  0  0  0  0  0  0  0  0  0  0  0
   20.8158   16.0736   22.6292 H   0  0  0  0  0  0  0  0  0  0  0  0
   21.5136   17.6941   22.4412 H   0  0  0  0  0  0  0  0  0  0  0  0
  1  2  1  0  0  0  0
  1  3  2  0  0  0  0
  1  4  1  0  0  0  0
  4  5  1  0  0  0  0
  4  6  2  0  0  0  0
  6  7  1  0  0  0  0
  6  8  1  0  0  0  0
  8  9  1  0  0  0  0
  8 10  1  0  0  0  0
  8 11  1  0  0  0  0
 11 12  1  0  0  0  0
 11 13  1  0  0  0  0
 11 14  1  0  0  0  0
 14 15  1  0  0  0  0
 14 16  1  0  0  0  0
 14 17  1  0  0  0  0
M  END
> <VConfSearch Rank>
43

> <Conf_Id>
3

> <Delta U+W>
0.531

> <U+W>
-52.878

> <U>
10.067

> <W>
-62.945

> <W(PB)>
-64.982

> <W(SA)>
2.037

> <Valence>
2.779

> <Coulomb>
6.474

> <VdW>
0.815

> <VdW6>
-5.088

> <VdW12>
5.902

> <Bond>
0.078

> <Angle>
2.651

> <Pdih>
0.050

> <Idih>
0.000

> <Tether>
0.000

$$$$
VeraChem MOL file


 17 16  0  0  0  0  0  0  0  0999 V2000     
   21.7501   17.9329   24.2244 C   0  0  0  0  0  0  0  0  0  0  0  0
   21.5948   17.9114   25.4299 O   0  5  0  0  0  0  0  0  0  0  0  0
   22.8374   17.7941   23.6961 O   0  0  0  0  0  0  0  0  0  0  0  0
   20.5424   18.1360   23.3793 C   0  0  0  0  0  0  0  0  0  0  0  0
   19.6033   18.2531   23.9151 H   0  0  0  0  0  0  0  0  0  0  0  0
   20.5678   18.1837   22.0278 C   0  0  0  0  0  0  0  0  0  0  0  0
   21.5049   18.0709   21.4831 H   0  0  0  0  0  0  0  0  0  0  0  0
   19.3369   18.3933   21.1702 C   0  0  0  0  0  0  0  0  0  0  0  0
   18.4245   18.1932   21.7483 H   0  0  0  0  0  0  0  0  0  0  0  0
   19.3439   17.6643   20.3489 H   0  0  0  0  0  0  0  0  0  0  0  0
   19.2725   19.8171   20.5755 C   0  0  0  0  0  0  0  0  0  0  0  0
   20.1860   20.0191   19.9992 H   0  0  0  0  0  0  0  0  0  0  0  0
   18.4354   19.8717   19.8659 H   0  0  0  0  0  0  0  0  0  0  0  0
   19.0877   20.9042   21.6557 C   0  0  0  0  0  0  0  0  0  0  0  0
   19.9392   20.9234   22.3482 H   0  0  0  0  0  0  0  0  0  0  0  0
   19.0069   21.8970   21.1945 H   0  0  0  0  0  0  0  0  0  0  0  0
   18.1753   20.7262   22.2397 H   0  0  0  0  0  0  0  0  0  0  0  0
  1  2  1  0  0  0  0
  1  3  2  0  0  0  0
  1  4  1  0  0  0  0
  4  5  1  0  0  0  0
  4  6  2  0  0  0  0
  6  7  1  0  0  0  0
  6  8  1  0  0  0  0
  8  9  1  0  0  0  0
  8 10  1  0  0  0  0
  8 11  1  0  0  0  0
 11 12  1  0  0  0  0
 11 13  1  0  0  0  0
 11 14  1  0  0  0  0
 14 15  1  0  0  0  0
 14 16  1  0  0  0  0
 14 17  1  0  0  0  0
M  END
> <VConfSearch Rank>
44

> <Conf_Id>
45

> <Delta U+W>
0.562

> <U+W>
-52.846

> <U>
10.243

> <W>
-63.089

> <W(PB)>
-65.116

> <W(SA)>
2.026

> <Valence>
2.822

> <Coulomb>
6.637

> <VdW>
0.785

> <VdW6>
-5.216

> <VdW12>
6.001

> <Bond>
0.080

> <Angle>
2.678

> <Pdih>
0.064

> <Idih>
0.000

> <Tether>
0.000

$$$$
VeraChem MOL file


 17 16  0  0  0  0  0  0  0  0999 V2000     
   21.2643   16.1217   21.0270 C   0  0  0  0  0  0  0  0  0  0  0  0
   20.8496   15.3206   20.2121 O   0  5  0  0  0  0  0  0  0  0  0  0
   22.1256   15.8492   21.8420 O   0  0  0  0  0  0  0  0  0  0  0  0
   20.6786   17.4894   21.0061 C   0  0  0  0  0  0  0  0  0  0  0  0
   19.9139   17.6668   20.2533 H   0  0  0  0  0  0  0  0  0  0  0  0
   21.0433   18.4785   21.8533 C   0  0  0  0  0  0  0  0  0  0  0  0
   21.8067   18.3110   22.6128 H   0  0  0  0  0  0  0  0  0  0  0  0
   20.4410   19.8662   21.8268 C   0  0  0  0  0  0  0  0  0  0  0  0
   20.2672   20.1805   20.7886 H   0  0  0  0  0  0  0  0  0  0  0  0
   21.1529   20.5844   22.2556 H   0  0  0  0  0  0  0  0  0  0  0  0
   19.1165   19.9191   22.6154 C   0  0  0  0  0  0  0  0  0  0  0  0
   18.4016   19.2041   22.1850 H   0  0  0  0  0  0  0  0  0  0  0  0
   19.2933   19.6064   23.6539 H   0  0  0  0  0  0  0  0  0  0  0  0
   18.5009   21.3327   22.6011 C   0  0  0  0  0  0  0  0  0  0  0  0
   19.1831   22.0631   23.0555 H   0  0  0  0  0  0  0  0  0  0  0  0
   18.2854   21.6570   21.5746 H   0  0  0  0  0  0  0  0  0  0  0  0
   17.5600   21.3505   23.1666 H   0  0  0  0  0  0  0  0  0  0  0  0
  1  2  1  0  0  0  0
  1  3  2  0  0  0  0
  1  4  1  0  0  0  0
  4  5  1  0  0  0  0
  4  6  2  0  0  0  0
  6  7  1  0  0  0  0
  6  8  1  0  0  0  0
  8  9  1  0  0  0  0
  8 10  1  0  0  0  0
  8 11  1  0  0  0  0
 11 12  1  0  0  0  0
 11 13  1  0  0  0  0
 11 14  1  0  0  0  0
 14 15  1  0  0  0  0
 14 16  1  0  0  0  0
 14 17  1  0  0  0  0
M  END
> <VConfSearch Rank>
45

> <Conf_Id>
36

> <Delta U+W>
0.000

> <U+W>
-53.409

> <U>
9.048

> <W>
-62.457

> <W(PB)>
-64.540

> <W(SA)>
2.084

> <Valence>
2.652

> <Coulomb>
5.578

> <VdW>
0.818

> <VdW6>
-4.534

> <VdW12>
5.352

> <Bond>
0.063

> <Angle>
2.579

> <Pdih>
0.010

> <Idih>
0.000

> <Tether>
0.000

$$$$
VeraChem MOL file


 17 16  0  0  0  0  0  0  0  0999 V2000     
   22.8256   20.9568   21.9153 C   0  0  0  0  0  0  0  0  0  0  0  0
   23.4987   20.5787   22.8558 O   0  5  0  0  0  0  0  0  0  0  0  0
   23.0832   21.9613   21.2809 O   0  0  0  0  0  0  0  0  0  0  0  0
   21.6308   20.1711   21.5037 C   0  0  0  0  0  0  0  0  0  0  0  0
   21.0736   20.5637   20.6562 H   0  0  0  0  0  0  0  0  0  0  0  0
   21.2265   19.0364   22.1186 C   0  0  0  0  0  0  0  0  0  0  0  0
   21.7761   18.6355   22.9700 H   0  0  0  0  0  0  0  0  0  0  0  0
   20.0090   18.2443   21.6948 C   0  0  0  0  0  0  0  0  0  0  0  0
   20.1238   17.1978   22.0079 H   0  0  0  0  0  0  0  0  0  0  0  0
   19.9292   18.2358   20.5992 H   0  0  0  0  0  0  0  0  0  0  0  0
   18.7186   18.8274   22.3062 C   0  0  0  0  0  0  0  0  0  0  0  0
   18.7999   18.8330   23.4020 H   0  0  0  0  0  0  0  0  0  0  0  0
   18.6001   19.8733   21.9905 H   0  0  0  0  0  0  0  0  0  0  0  0
   17.4738   18.0200   21.8864 C   0  0  0  0  0  0  0  0  0  0  0  0
   17.5522   16.9763   22.2181 H   0  0  0  0  0  0  0  0  0  0  0  0
   16.5664   18.4494   22.3307 H   0  0  0  0  0  0  0  0  0  0  0  0
   17.3519   18.0249   20.7953 H   0  0  0  0  0  0  0  0  0  0  0  0
  1  2  1  0  0  0  0
  1  3  2  0  0  0  0
  1  4  1  0  0  0  0
  4  5  1  0  0  0  0
  4  6  2  0  0  0  0
  6  7  1  0  0  0  0
  6  8  1  0  0  0  0
  8  9  1  0  0  0  0
  8 10  1  0  0  0  0
  8 11  1  0  0  0  0
 11 12  1  0  0  0  0
 11 13  1  0  0  0  0
 11 14  1  0  0  0  0
 14 15  1  0  0  0  0
 14 16  1  0  0  0  0
 14 17  1  0  0  0  0
M  END
> <VConfSearch Rank>
46

> <Conf_Id>
1

> <Delta U+W>
0.030

> <U+W>
-53.378

> <U>
9.048

> <W>
-62.426

> <W(PB)>
-64.506

> <W(SA)>
2.080

> <Valence>
2.652

> <Coulomb>
5.578

> <VdW>
0.818

> <VdW6>
-4.535

> <VdW12>
5.352

> <Bond>
0.063

> <Angle>
2.579

> <Pdih>
0.010

> <Idih>
0.000

> <Tether>
0.000

$$$$
VeraChem MOL file


 17 16  0  0  0  0  0  0  0  0999 V2000     
   17.6513   17.2463   22.7676 C   0  0  0  0  0  0  0  0  0  0  0  0
   16.7306   18.0396   22.7096 O   0  5  0  0  0  0  0  0  0  0  0  0
   17.4851   16.0421   22.7770 O   0  0  0  0  0  0  0  0  0  0  0  0
   19.0508   17.7475   22.8342 C   0  0  0  0  0  0  0  0  0  0  0  0
   19.8258   16.9862   22.8852 H   0  0  0  0  0  0  0  0  0  0  0  0
   19.3828   19.0585   22.8305 C   0  0  0  0  0  0  0  0  0  0  0  0
   18.6146   19.8295   22.7763 H   0  0  0  0  0  0  0  0  0  0  0  0
   20.8098   19.5611   22.8947 C   0  0  0  0  0  0  0  0  0  0  0  0
   21.3827   18.9531   23.6079 H   0  0  0  0  0  0  0  0  0  0  0  0
   20.8264   20.5876   23.2849 H   0  0  0  0  0  0  0  0  0  0  0  0
   21.5095   19.5205   21.5184 C   0  0  0  0  0  0  0  0  0  0  0  0
   22.5662   19.7939   21.6444 H   0  0  0  0  0  0  0  0  0  0  0  0
   21.4955   18.4943   21.1258 H   0  0  0  0  0  0  0  0  0  0  0  0
   20.8595   20.4770   20.4960 C   0  0  0  0  0  0  0  0  0  0  0  0
   20.8736   21.5118   20.8622 H   0  0  0  0  0  0  0  0  0  0  0  0
   21.4011   20.4478   19.5417 H   0  0  0  0  0  0  0  0  0  0  0  0
   19.8163   20.1972   20.2993 H   0  0  0  0  0  0  0  0  0  0  0  0
  1  2  1  0  0  0  0
  1  3  2  0  0  0  0
  1  4  1  0  0  0  0
  4  5  1  0  0  0  0
  4  6  2  0  0  0  0
  6  7  1  0  0  0  0
  6  8  1  0  0  0  0
  8  9  1  0  0  0  0
  8 10  1  0  0  0  0
  8 11  1  0  0  0  0
 11 12  1  0  0  0  0
 11 13  1  0  0  0  0
 11 14  1  0  0  0  0
 14 15  1  0  0  0  0
 14 16  1  0  0  0  0
 14 17  1  0  0  0  0
M  END
> <VConfSearch Rank>
47

> <Conf_Id>
3

> <Delta U+W>
0.531

> <U+W>
-52.878

> <U>
10.067

> <W>
-62.945

> <W(PB)>
-64.982

> <W(SA)>
2.037

> <Valence>
2.779

> <Coulomb>
6.474

> <VdW>
0.815

> <VdW6>
-5.088

> <VdW12>
5.902

> <Bond>
0.078

> <Angle>
2.651

> <Pdih>
0.050

> <Idih>
0.000

> <Tether>
0.000

$$$$
VeraChem MOL file


 17 16  0  0  0  0  0  0  0  0999 V2000     
   18.1976   16.6785   21.7749 C   0  0  0  0  0  0  0  0  0  0  0  0
   18.4116   15.6262   21.2052 O   0  5  0  0  0  0  0  0  0  0  0  0
   17.0759   17.0772   22.0264 O   0  0  0  0  0  0  0  0  0  0  0  0
   19.3753   17.4953   22.1751 C   0  0  0  0  0  0  0  0  0  0  0  0
   20.3480   17.0810   21.9202 H   0  0  0  0  0  0  0  0  0  0  0  0
   19.2857   18.6853   22.8119 C   0  0  0  0  0  0  0  0  0  0  0  0
   18.3150   19.1094   23.0677 H   0  0  0  0  0  0  0  0  0  0  0  0
   20.4864   19.5158   23.2155 C   0  0  0  0  0  0  0  0  0  0  0  0
   21.3993   18.9048   23.2074 H   0  0  0  0  0  0  0  0  0  0  0  0
   20.3554   19.8552   24.2517 H   0  0  0  0  0  0  0  0  0  0  0  0
   20.6790   20.7486   22.3054 C   0  0  0  0  0  0  0  0  0  0  0  0
   19.7653   21.3590   22.3108 H   0  0  0  0  0  0  0  0  0  0  0  0
   21.4792   21.3779   22.7188 H   0  0  0  0  0  0  0  0  0  0  0  0
   21.0398   20.3650   20.8543 C   0  0  0  0  0  0  0  0  0  0  0  0
   20.2326   19.7880   20.3847 H   0  0  0  0  0  0  0  0  0  0  0  0
   21.2073   21.2643   20.2476 H   0  0  0  0  0  0  0  0  0  0  0  0
   21.9555   19.7602   20.8243 H   0  0  0  0  0  0  0  0  0  0  0  0
  1  2  1  0  0  0  0
  1  3  2  0  0  0  0
  1  4  1  0  0  0  0
  4  5  1  0  0  0  0
  4  6  2  0  0  0  0
  6  7  1  0  0  0  0
  6  8  1  0  0  0  0
  8  9  1  0  0  0  0
  8 10  1  0  0  0  0
  8 11  1  0  0  0  0
 11 12  1  0  0  0  0
 11 13  1  0  0  0  0
 11 14  1  0  0  0  0
 14 15  1  0  0  0  0
 14 16  1  0  0  0  0
 14 17  1  0  0  0  0
M  END
> <VConfSearch Rank>
48

> <Conf_Id>
45

> <Delta U+W>
0.562

> <U+W>
-52.846

> <U>
10.243

> <W>
-63.089

> <W(PB)>
-65.116

> <W(SA)>
2.026

> <Valence>
2.822

> <Coulomb>
6.637

> <VdW>
0.785

> <VdW6>
-5.216

> <VdW12>
6.001

> <Bond>
0.080

> <Angle>
2.678

> <Pdih>
0.064

> <Idih>
0.000

> <Tether>
0.000

$$$$
VeraChem MOL file


 17 16  0  0  0  0  0  0  0  0999 V2000     
   18.5423   18.3546   24.8615 C   0  0  0  0  0  0  0  0  0  0  0  0
   18.1716   19.0954   25.7512 O   0  5  0  0  0  0  0  0  0  0  0  0
   18.6475   17.1509   25.0049 O   0  0  0  0  0  0  0  0  0  0  0  0
   18.8749   18.9701   23.5482 C   0  0  0  0  0  0  0  0  0  0  0  0
   18.7594   20.0498   23.4873 H   0  0  0  0  0  0  0  0  0  0  0  0
   19.2999   18.2684   22.4730 C   0  0  0  0  0  0  0  0  0  0  0  0
   19.4213   17.1866   22.5237 H   0  0  0  0  0  0  0  0  0  0  0  0
   19.6381   18.9024   21.1415 C   0  0  0  0  0  0  0  0  0  0  0  0
   18.9301   19.7128   20.9207 H   0  0  0  0  0  0  0  0  0  0  0  0
   19.5227   18.1597   20.3406 H   0  0  0  0  0  0  0  0  0  0  0  0
   21.0789   19.4529   21.1311 C   0  0  0  0  0  0  0  0  0  0  0  0
   21.1950   20.1992   21.9293 H   0  0  0  0  0  0  0  0  0  0  0  0
   21.7854   18.6401   21.3502 H   0  0  0  0  0  0  0  0  0  0  0  0
   21.4348   20.0925   19.7740 C   0  0  0  0  0  0  0  0  0  0  0  0
   21.3577   19.3583   18.9613 H   0  0  0  0  0  0  0  0  0  0  0  0
   20.7616   20.9291   19.5455 H   0  0  0  0  0  0  0  0  0  0  0  0
   22.4626   20.4781   19.7858 H   0  0  0  0  0  0  0  0  0  0  0  0
  1  2  1  0  0  0  0
  1  3  2  0  0  0  0
  1  4  1  0  0  0  0
  4  5  1  0  0  0  0
  4  6  2  0  0  0  0
  6  7  1  0  0  0  0
  6  8  1  0  0  0  0
  8  9  1  0  0  0  0
  8 10  1  0  0  0  0
  8 11  1  0  0  0  0
 11 12  1  0  0  0  0
 11 13  1  0  0  0  0
 11 14  1  0  0  0  0
 14 15  1  0  0  0  0
 14 16  1  0  0  0  0
 14 17  1  0  0  0  0
M  END
> <VConfSearch Rank>
49

> <Conf_Id>
36

> <Delta U+W>
0.000

> <U+W>
-53.409

> <U>
9.048

> <W>
-62.457

> <W(PB)>
-64.540

> <W(SA)>
2.084

> <Valence>
2.652

> <Coulomb>
5.578

> <VdW>
0.818

> <VdW6>
-4.534

> <VdW12>
5.352

> <Bond>
0.063

> <Angle>
2.579

> <Pdih>
0.010

> <Idih>
0.000

> <Tether>
0.000

$$$$
VeraChem MOL file


 17 16  0  0  0  0  0  0  0  0999 V2000     
   19.0534   22.2498   22.6144 C   0  0  0  0  0  0  0  0  0  0  0  0
   19.2628   22.9121   21.6154 O   0  5  0  0  0  0  0  0  0  0  0  0
   18.7609   22.7451   23.6853 O   0  0  0  0  0  0  0  0  0  0  0  0
   19.1524   20.7666   22.5469 C   0  0  0  0  0  0  0  0  0  0  0  0
   18.9531   20.2350   23.4746 H   0  0  0  0  0  0  0  0  0  0  0  0
   19.4694   20.0826   21.4241 C   0  0  0  0  0  0  0  0  0  0  0  0
   19.6731   20.6054   20.4897 H   0  0  0  0  0  0  0  0  0  0  0  0
   19.5697   18.5741   21.3645 C   0  0  0  0  0  0  0  0  0  0  0  0
   19.3957   18.2344   20.3346 H   0  0  0  0  0  0  0  0  0  0  0  0
   18.7813   18.1207   21.9806 H   0  0  0  0  0  0  0  0  0  0  0  0
   20.9514   18.0835   21.8433 C   0  0  0  0  0  0  0  0  0  0  0  0
   21.7381   18.5366   21.2242 H   0  0  0  0  0  0  0  0  0  0  0  0
   21.1254   18.4191   22.8751 H   0  0  0  0  0  0  0  0  0  0  0  0
   21.0649   16.5472   21.7768 C   0  0  0  0  0  0  0  0  0  0  0  0
   20.9263   16.1870   20.7489 H   0  0  0  0  0  0  0  0  0  0  0  0
   22.0537   16.2172   22.1209 H   0  0  0  0  0  0  0  0  0  0  0  0
   20.3080   16.0694   22.4127 H   0  0  0  0  0  0  0  0  0  0  0  0
  1  2  1  0  0  0  0
  1  3  2  0  0  0  0
  1  4  1  0  0  0  0
  4  5  1  0  0  0  0
  4  6  2  0  0  0  0
  6  7  1  0  0  0  0
  6  8  1  0  0  0  0
  8  9  1  0  0  0  0
  8 10  1  0  0  0  0
  8 11  1  0  0  0  0
 11 12  1  0  0  0  0
 11 13  1  0  0  0  0
 11 14  1  0  0  0  0
 14 15  1  0  0  0  0
 14 16  1  0  0  0  0
 14 17  1  0  0  0  0
M  END
> <VConfSearch Rank>
50

> <Conf_Id>
1

> <Delta U+W>
0.030

> <U+W>
-53.378

> <U>
9.048

> <W>
-62.426

> <W(PB)>
-64.506

> <W(SA)>
2.080

> <Valence>
2.652

> <Coulomb>
5.578

> <VdW>
0.818

> <VdW6>
-4.535

> <VdW12>
5.352

> <Bond>
0.063

> <Angle>
2.579

> <Pdih>
0.010

> <Idih>
0.000

> <Tether>
0.000

$$$$
VeraChem MOL file


 17 16  0  0  0  0  0  0  0  0999 V2000     
   17.2302   17.9246   22.6692 C   0  0  0  0  0  0  0  0  0  0  0  0
   17.5404   16.8279   23.0953 O   0  5  0  0  0  0  0  0  0  0  0  0
   16.1251   18.4057   22.8278 O   0  0  0  0  0  0  0  0  0  0  0  0
   18.2285   18.7297   21.9147 C   0  0  0  0  0  0  0  0  0  0  0  0
   17.8865   19.6996   21.5610 H   0  0  0  0  0  0  0  0  0  0  0  0
   19.4931   18.3205   21.6651 C   0  0  0  0  0  0  0  0  0  0  0  0
   19.8472   17.3521   22.0177 H   0  0  0  0  0  0  0  0  0  0  0  0
   20.5050   19.1472   20.8997 C   0  0  0  0  0  0  0  0  0  0  0  0
   20.0128   19.6355   20.0477 H   0  0  0  0  0  0  0  0  0  0  0  0
   21.2760   18.4916   20.4732 H   0  0  0  0  0  0  0  0  0  0  0  0
   21.1732   20.2235   21.7832 C   0  0  0  0  0  0  0  0  0  0  0  0
   21.8145   20.8567   21.1546 H   0  0  0  0  0  0  0  0  0  0  0  0
   20.4042   20.8819   22.2104 H   0  0  0  0  0  0  0  0  0  0  0  0
   22.0236   19.6131   22.9176 C   0  0  0  0  0  0  0  0  0  0  0  0
   22.8079   18.9603   22.5127 H   0  0  0  0  0  0  0  0  0  0  0  0
   22.5098   20.4037   23.5036 H   0  0  0  0  0  0  0  0  0  0  0  0
   21.4035   19.0200   23.6023 H   0  0  0  0  0  0  0  0  0  0  0  0
  1  2  1  0  0  0  0
  1  3  2  0  0  0  0
  1  4  1  0  0  0  0
  4  5  1  0  0  0  0
  4  6  2  0  0  0  0
  6  7  1  0  0  0  0
  6  8  1  0  0  0  0
  8  9  1  0  0  0  0
  8 10  1  0  0  0  0
  8 11  1  0  0  0  0
 11 12  1  0  0  0  0
 11 13  1  0  0  0  0
 11 14  1  0  0  0  0
 14 15  1  0  0  0  0
 14 16  1  0  0  0  0
 14 17  1  0  0  0  0
M  END
> <VConfSearch Rank>
51

> <Conf_Id>
3

> <Delta U+W>
0.531

> <U+W>
-52.878

> <U>
10.067

> <W>
-62.945

> <W(PB)>
-64.982

> <W(SA)>
2.037

> <Valence>
2.779

> <Coulomb>
6.474

> <VdW>
0.815

> <VdW6>
-5.088

> <VdW12>
5.902

> <Bond>
0.078

> <Angle>
2.651

> <Pdih>
0.050

> <Idih>
0.000

> <Tether>
0.000

$$$$
VeraChem MOL file


 17 16  0  0  0  0  0  0  0  0999 V2000     
   17.0121   19.5769   22.3924 C   0  0  0  0  0  0  0  0  0  0  0  0
   16.4281   20.4039   23.0654 O   0  5  0  0  0  0  0  0  0  0  0  0
   16.4832   18.5554   21.9960 O   0  0  0  0  0  0  0  0  0  0  0  0
   18.4339   19.8501   22.0490 C   0  0  0  0  0  0  0  0  0  0  0  0
   18.8444   20.7803   22.4349 H   0  0  0  0  0  0  0  0  0  0  0  0
   19.2041   19.0184   21.3110 C   0  0  0  0  0  0  0  0  0  0  0  0
   18.8018   18.0826   20.9235 H   0  0  0  0  0  0  0  0  0  0  0  0
   20.6521   19.2979   20.9653 C   0  0  0  0  0  0  0  0  0  0  0  0
   20.8874   20.3602   21.1167 H   0  0  0  0  0  0  0  0  0  0  0  0
   20.8102   19.0994   19.8969 H   0  0  0  0  0  0  0  0  0  0  0  0
   21.6291   18.4280   21.7862 C   0  0  0  0  0  0  0  0  0  0  0  0
   21.3927   17.3652   21.6375 H   0  0  0  0  0  0  0  0  0  0  0  0
   22.6490   18.5787   21.4065 H   0  0  0  0  0  0  0  0  0  0  0  0
   21.5991   18.7617   23.2931 C   0  0  0  0  0  0  0  0  0  0  0  0
   20.6093   18.5614   23.7235 H   0  0  0  0  0  0  0  0  0  0  0  0
   22.3322   18.1530   23.8380 H   0  0  0  0  0  0  0  0  0  0  0  0
   21.8402   19.8186   23.4659 H   0  0  0  0  0  0  0  0  0  0  0  0
  1  2  1  0  0  0  0
  1  3  2  0  0  0  0
  1  4  1  0  0  0  0
  4  5  1  0  0  0  0
  4  6  2  0  0  0  0
  6  7  1  0  0  0  0
  6  8  1  0  0  0  0
  8  9  1  0  0  0  0
  8 10  1  0  0  0  0
  8 11  1  0  0  0  0
 11 12  1  0  0  0  0
 11 13  1  0  0  0  0
 11 14  1  0  0  0  0
 14 15  1  0  0  0  0
 14 16  1  0  0  0  0
 14 17  1  0  0  0  0
M  END
> <VConfSearch Rank>
52

> <Conf_Id>
45

> <Delta U+W>
0.562

> <U+W>
-52.846

> <U>
10.243

> <W>
-63.089

> <W(PB)>
-65.116

> <W(SA)>
2.026

> <Valence>
2.822

> <Coulomb>
6.637

> <VdW>
0.785

> <VdW6>
-5.216

> <VdW12>
6.001

> <Bond>
0.080

> <Angle>
2.678

> <Pdih>
0.064

> <Idih>
0.000

> <Tether>
0.000

$$$$
VeraChem MOL file


 17 16  0  0  0  0  0  0  0  0999 V2000     
   18.5892   19.3657   18.8565 C   0  0  0  0  0  0  0  0  0  0  0  0
   17.6527   18.7486   18.3875 O   0  5  0  0  0  0  0  0  0  0  0  0
   19.3358   20.0480   18.1802 O   0  0  0  0  0  0  0  0  0  0  0  0
   18.8110   19.2677   20.3246 C   0  0  0  0  0  0  0  0  0  0  0  0
   18.1083   18.6420   20.8700 H   0  0  0  0  0  0  0  0  0  0  0  0
   19.8123   19.8984   20.9793 C   0  0  0  0  0  0  0  0  0  0  0  0
   20.5234   20.5259   20.4423 H   0  0  0  0  0  0  0  0  0  0  0  0
   20.0322   19.7918   22.4725 C   0  0  0  0  0  0  0  0  0  0  0  0
   19.0658   19.7818   22.9947 H   0  0  0  0  0  0  0  0  0  0  0  0
   20.5710   20.6800   22.8293 H   0  0  0  0  0  0  0  0  0  0  0  0
   20.8321   18.5234   22.8335 C   0  0  0  0  0  0  0  0  0  0  0  0
   20.2923   17.6335   22.4809 H   0  0  0  0  0  0  0  0  0  0  0  0
   21.7991   18.5367   22.3116 H   0  0  0  0  0  0  0  0  0  0  0  0
   21.0687   18.4122   24.3531 C   0  0  0  0  0  0  0  0  0  0  0  0
   21.6351   19.2752   24.7268 H   0  0  0  0  0  0  0  0  0  0  0  0
   20.1159   18.3658   24.8966 H   0  0  0  0  0  0  0  0  0  0  0  0
   21.6386   17.5044   24.5903 H   0  0  0  0  0  0  0  0  0  0  0  0
  1  2  1  0  0  0  0
  1  3  2  0  0  0  0
  1  4  1  0  0  0  0
  4  5  1  0  0  0  0
  4  6  2  0  0  0  0
  6  7  1  0  0  0  0
  6  8  1  0  0  0  0
  8  9  1  0  0  0  0
  8 10  1  0  0  0  0
  8 11  1  0  0  0  0
 11 12  1  0  0  0  0
 11 13  1  0  0  0  0
 11 14  1  0  0  0  0
 14 15  1  0  0  0  0
 14 16  1  0  0  0  0
 14 17  1  0  0  0  0
M  END
> <VConfSearch Rank>
53

> <Conf_Id>
36

> <Delta U+W>
0.000

> <U+W>
-53.409

> <U>
9.048

> <W>
-62.457

> <W(PB)>
-64.540

> <W(SA)>
2.084

> <Valence>
2.652

> <Coulomb>
5.578

> <VdW>
0.818

> <VdW6>
-4.534

> <VdW12>
5.352

> <Bond>
0.063

> <Angle>
2.579

> <Pdih>
0.010

> <Idih>
0.000

> <Tether>
0.000

$$$$
VeraChem MOL file


 17 16  0  0  0  0  0  0  0  0999 V2000     
   17.2191   19.4514   23.7676 C   0  0  0  0  0  0  0  0  0  0  0  0
   17.4666   18.9989   24.8696 O   0  5  0  0  0  0  0  0  0  0  0  0
   16.0955   19.7528   23.4150 O   0  0  0  0  0  0  0  0  0  0  0  0
   18.3237   19.6549   22.7917 C   0  0  0  0  0  0  0  0  0  0  0  0
   18.0345   20.0624   21.8257 H   0  0  0  0  0  0  0  0  0  0  0  0
   19.6192   19.3630   23.0479 C   0  0  0  0  0  0  0  0  0  0  0  0
   19.9197   18.9522   24.0116 H   0  0  0  0  0  0  0  0  0  0  0  0
   20.7364   19.5713   22.0490 C   0  0  0  0  0  0  0  0  0  0  0  0
   21.6884   19.6957   22.5826 H   0  0  0  0  0  0  0  0  0  0  0  0
   20.5694   20.5004   21.4872 H   0  0  0  0  0  0  0  0  0  0  0  0
   20.8444   18.3837   21.0708 C   0  0  0  0  0  0  0  0  0  0  0  0
   21.0135   17.4560   21.6350 H   0  0  0  0  0  0  0  0  0  0  0  0
   19.8940   18.2604   20.5332 H   0  0  0  0  0  0  0  0  0  0  0  0
   21.9870   18.5842   20.0551 C   0  0  0  0  0  0  0  0  0  0  0  0
   22.9545   18.6786   20.5655 H   0  0  0  0  0  0  0  0  0  0  0  0
   22.0482   17.7299   19.3683 H   0  0  0  0  0  0  0  0  0  0  0  0
   21.8255   19.4898   19.4559 H   0  0  0  0  0  0  0  0  0  0  0  0
  1  2  1  0  0  0  0
  1  3  2  0  0  0  0
  1  4  1  0  0  0  0
  4  5  1  0  0  0  0
  4  6  2  0  0  0  0
  6  7  1  0  0  0  0
  6  8  1  0  0  0  0
  8  9  1  0  0  0  0
  8 10  1  0  0  0  0
  8 11  1  0  0  0  0
 11 12  1  0  0  0  0
 11 13  1  0  0  0  0
 11 14  1  0  0  0  0
 14 15  1  0  0  0  0
 14 16  1  0  0  0  0
 14 17  1  0  0  0  0
M  END
> <VConfSearch Rank>
54

> <Conf_Id>
1

> <Delta U+W>
0.030

> <U+W>
-53.378

> <U>
9.048

> <W>
-62.426

> <W(PB)>
-64.506

> <W(SA)>
2.080

> <Valence>
2.652

> <Coulomb>
5.578

> <VdW>
0.818

> <VdW6>
-4.535

> <VdW12>
5.352

> <Bond>
0.063

> <Angle>
2.579

> <Pdih>
0.010

> <Idih>
0.000

> <Tether>
0.000

$$$$
VeraChem MOL file


 17 16  0  0  0  0  0  0  0  0999 V2000     
   23.0220   19.6341   21.6387 C   0  0  0  0  0  0  0  0  0  0  0  0
   23.2089   19.0493   20.5882 O   0  5  0  0  0  0  0  0  0  0  0  0
   23.8083   20.4421   22.0931 O   0  0  0  0  0  0  0  0  0  0  0  0
   21.7859   19.3628   22.4214 C   0  0  0  0  0  0  0  0  0  0  0  0
   21.6811   19.9178   23.3508 H   0  0  0  0  0  0  0  0  0  0  0  0
   20.8260   18.4914   22.0363 C   0  0  0  0  0  0  0  0  0  0  0  0
   20.9193   17.9325   21.1054 H   0  0  0  0  0  0  0  0  0  0  0  0
   19.5687   18.2233   22.8364 C   0  0  0  0  0  0  0  0  0  0  0  0
   19.8152   18.1785   23.9059 H   0  0  0  0  0  0  0  0  0  0  0  0
   19.1631   17.2369   22.5742 H   0  0  0  0  0  0  0  0  0  0  0  0
   18.4873   19.3028   22.6109 C   0  0  0  0  0  0  0  0  0  0  0  0
   17.6455   19.1157   23.2918 H   0  0  0  0  0  0  0  0  0  0  0  0
   18.8898   20.2909   22.8736 H   0  0  0  0  0  0  0  0  0  0  0  0
   17.9660   19.3233   21.1581 C   0  0  0  0  0  0  0  0  0  0  0  0
   17.5469   18.3482   20.8774 H   0  0  0  0  0  0  0  0  0  0  0  0
   17.1769   20.0775   21.0419 H   0  0  0  0  0  0  0  0  0  0  0  0
   18.7706   19.5668   20.4520 H   0  0  0  0  0  0  0  0  0  0  0  0
  1  2  1  0  0  0  0
  1  3  2  0  0  0  0
  1  4  1  0  0  0  0
  4  5  1  0  0  0  0
  4  6  2  0  0  0  0
  6  7  1  0  0  0  0
  6  8  1  0  0  0  0
  8  9  1  0  0  0  0
  8 10  1  0  0  0  0
  8 11  1  0  0  0  0
 11 12  1  0  0  0  0
 11 13  1  0  0  0  0
 11 14  1  0  0  0  0
 14 15  1  0  0  0  0
 14 16  1  0  0  0  0
 14 17  1  0  0  0  0
M  END
> <VConfSearch Rank>
55

> <Conf_Id>
3

> <Delta U+W>
0.531

> <U+W>
-52.878

> <U>
10.067

> <W>
-62.945

> <W(PB)>
-64.982

> <W(SA)>
2.037

> <Valence>
2.779

> <Coulomb>
6.474

> <VdW>
0.815

> <VdW6>
-5.088

> <VdW12>
5.902

> <Bond>
0.078

> <Angle>
2.651

> <Pdih>
0.050

> <Idih>
0.000

> <Tether>
0.000

$$$$
VeraChem MOL file


 17 16  0  0  0  0  0  0  0  0999 V2000     
   20.9021   21.5074   23.6464 C   0  0  0  0  0  0  0  0  0  0  0  0
   21.9341   22.1431   23.5531 O   0  5  0  0  0  0  0  0  0  0  0  0
   20.2063   21.5207   24.6445 O   0  0  0  0  0  0  0  0  0  0  0  0
   20.4914   20.6877   22.4745 C   0  0  0  0  0  0  0  0  0  0  0  0
   21.1581   20.7210   21.6159 H   0  0  0  0  0  0  0  0  0  0  0  0
   19.3709   19.9307   22.4398 C   0  0  0  0  0  0  0  0  0  0  0  0
   18.6994   19.8888   23.2970 H   0  0  0  0  0  0  0  0  0  0  0  0
   18.9570   19.0951   21.2463 C   0  0  0  0  0  0  0  0  0  0  0  0
   19.4929   19.4184   20.3435 H   0  0  0  0  0  0  0  0  0  0  0  0
   17.8905   19.2622   21.0443 H   0  0  0  0  0  0  0  0  0  0  0  0
   19.1925   17.5863   21.4771 C   0  0  0  0  0  0  0  0  0  0  0  0
   18.6588   17.2625   22.3814 H   0  0  0  0  0  0  0  0  0  0  0  0
   18.7594   17.0235   20.6387 H   0  0  0  0  0  0  0  0  0  0  0  0
   20.6896   17.2310   21.6012 C   0  0  0  0  0  0  0  0  0  0  0  0
   21.1436   17.7260   22.4695 H   0  0  0  0  0  0  0  0  0  0  0  0
   20.8205   16.1482   21.7248 H   0  0  0  0  0  0  0  0  0  0  0  0
   21.2418   17.5392   20.7038 H   0  0  0  0  0  0  0  0  0  0  0  0
  1  2  1  0  0  0  0
  1  3  2  0  0  0  0
  1  4  1  0  0  0  0
  4  5  1  0  0  0  0
  4  6  2  0  0  0  0
  6  7  1  0  0  0  0
  6  8  1  0  0  0  0
  8  9  1  0  0  0  0
  8 10  1  0  0  0  0
  8 11  1  0  0  0  0
 11 12  1  0  0  0  0
 11 13  1  0  0  0  0
 11 14  1  0  0  0  0
 14 15  1  0  0  0  0
 14 16  1  0  0  0  0
 14 17  1  0  0  0  0
M  END
> <VConfSearch Rank>
56

> <Conf_Id>
45

> <Delta U+W>
0.562

> <U+W>
-52.846

> <U>
10.243

> <W>
-63.089

> <W(PB)>
-65.116

> <W(SA)>
2.026

> <Valence>
2.822

> <Coulomb>
6.637

> <VdW>
0.785

> <VdW6>
-5.216

> <VdW12>
6.001

> <Bond>
0.080

> <Angle>
2.678

> <Pdih>
0.064

> <Idih>
0.000

> <Tether>
0.000

$$$$
VeraChem MOL file


 17 16  0  0  0  0  0  0  0  0999 V2000     
   21.5581   19.8920   24.7996 C   0  0  0  0  0  0  0  0  0  0  0  0
   21.0981   20.3605   25.8226 O   0  5  0  0  0  0  0  0  0  0  0  0
   22.7532   19.8322   24.5794 O   0  0  0  0  0  0  0  0  0  0  0  0
   20.5977   19.3740   23.7879 C   0  0  0  0  0  0  0  0  0  0  0  0
   19.5446   19.4575   24.0469 H   0  0  0  0  0  0  0  0  0  0  0  0
   20.9679   18.8284   22.6071 C   0  0  0  0  0  0  0  0  0  0  0  0
   22.0201   18.7420   22.3366 H   0  0  0  0  0  0  0  0  0  0  0  0
   19.9846   18.3060   21.5827 C   0  0  0  0  0  0  0  0  0  0  0  0
   19.1475   17.8045   22.0873 H   0  0  0  0  0  0  0  0  0  0  0  0
   20.4732   17.5462   20.9580 H   0  0  0  0  0  0  0  0  0  0  0  0
   19.4479   19.4423   20.6885 C   0  0  0  0  0  0  0  0  0  0  0  0
   18.9549   20.2013   21.3117 H   0  0  0  0  0  0  0  0  0  0  0  0
   20.2867   19.9410   20.1833 H   0  0  0  0  0  0  0  0  0  0  0  0
   18.4519   18.9165   19.6353 C   0  0  0  0  0  0  0  0  0  0  0  0
   18.9289   18.1781   18.9775 H   0  0  0  0  0  0  0  0  0  0  0  0
   17.5873   18.4400   20.1158 H   0  0  0  0  0  0  0  0  0  0  0  0
   18.0812   19.7385   19.0093 H   0  0  0  0  0  0  0  0  0  0  0  0
  1  2  1  0  0  0  0
  1  3  2  0  0  0  0
  1  4  1  0  0  0  0
  4  5  1  0  0  0  0
  4  6  2  0  0  0  0
  6  7  1  0  0  0  0
  6  8  1  0  0  0  0
  8  9  1  0  0  0  0
  8 10  1  0  0  0  0
  8 11  1  0  0  0  0
 11 12  1  0  0  0  0
 11 13  1  0  0  0  0
 11 14  1  0  0  0  0
 14 15  1  0  0  0  0
 14 16  1  0  0  0  0
 14 17  1  0  0  0  0
M  END
> <VConfSearch Rank>
57

> <Conf_Id>
36

> <Delta U+W>
0.000

> <U+W>
-53.409

> <U>
9.048

> <W>
-62.457

> <W(PB)>
-64.540

> <W(SA)>
2.084

> <Valence>
2.652

> <Coulomb>
5.578

> <VdW>
0.818

> <VdW6>
-4.534

> <VdW12>
5.352

> <Bond>
0.063

> <Angle>
2.579

> <Pdih>
0.010

> <Idih>
0.000

> <Tether>
0.000

$$$$
VeraChem MOL file


 17 16  0  0  0  0  0  0  0  0999 V2000     
   16.7280   19.8206   21.6898 C   0  0  0  0  0  0  0  0  0  0  0  0
   16.5973   20.9758   22.0489 O   0  5  0  0  0  0  0  0  0  0  0  0
   15.7853   19.0741   21.5117 O   0  0  0  0  0  0  0  0  0  0  0  0
   18.0916   19.2753   21.4504 C   0  0  0  0  0  0  0  0  0  0  0  0
   18.1380   18.2366   21.1311 H   0  0  0  0  0  0  0  0  0  0  0  0
   19.2282   19.9907   21.6098 C   0  0  0  0  0  0  0  0  0  0  0  0
   19.1933   21.0314   21.9314 H   0  0  0  0  0  0  0  0  0  0  0  0
   20.6113   19.4278   21.3659 C   0  0  0  0  0  0  0  0  0  0  0  0
   21.3038   20.2455   21.1246 H   0  0  0  0  0  0  0  0  0  0  0  0
   20.5972   18.7622   20.4922 H   0  0  0  0  0  0  0  0  0  0  0  0
   21.1303   18.6586   22.5980 C   0  0  0  0  0  0  0  0  0  0  0  0
   21.1455   19.3271   23.4701 H   0  0  0  0  0  0  0  0  0  0  0  0
   20.4406   17.8376   22.8383 H   0  0  0  0  0  0  0  0  0  0  0  0
   22.5436   18.0896   22.3608 C   0  0  0  0  0  0  0  0  0  0  0  0
   23.2606   18.8937   22.1493 H   0  0  0  0  0  0  0  0  0  0  0  0
   22.8956   17.5463   23.2474 H   0  0  0  0  0  0  0  0  0  0  0  0
   22.5492   17.3930   21.5121 H   0  0  0  0  0  0  0  0  0  0  0  0
  1  2  1  0  0  0  0
  1  3  2  0  0  0  0
  1  4  1  0  0  0  0
  4  5  1  0  0  0  0
  4  6  2  0  0  0  0
  6  7  1  0  0  0  0
  6  8  1  0  0  0  0
  8  9  1  0  0  0  0
  8 10  1  0  0  0  0
  8 11  1  0  0  0  0
 11 12  1  0  0  0  0
 11 13  1  0  0  0  0
 11 14  1  0  0  0  0
 14 15  1  0  0  0  0
 14 16  1  0  0  0  0
 14 17  1  0  0  0  0
M  END
> <VConfSearch Rank>
58

> <Conf_Id>
1

> <Delta U+W>
0.030

> <U+W>
-53.378

> <U>
9.048

> <W>
-62.426

> <W(PB)>
-64.506

> <W(SA)>
2.080

> <Valence>
2.652

> <Coulomb>
5.578

> <VdW>
0.818

> <VdW6>
-4.535

> <VdW12>
5.352

> <Bond>
0.063

> <Angle>
2.579

> <Pdih>
0.010

> <Idih>
0.000

> <Tether>
0.000

$$$$
VeraChem MOL file


 17 16  0  0  0  0  0  0  0  0999 V2000     
   21.6333   16.8367   20.7018 C   0  0  0  0  0  0  0  0  0  0  0  0
   22.7580   17.1280   21.0632 O   0  5  0  0  0  0  0  0  0  0  0  0
   21.3506   15.7499   20.2361 O   0  0  0  0  0  0  0  0  0  0  0  0
   20.5396   17.8385   20.8218 C   0  0  0  0  0  0  0  0  0  0  0  0
   19.5594   17.5144   20.4801 H   0  0  0  0  0  0  0  0  0  0  0  0
   20.7096   19.0836   21.3217 C   0  0  0  0  0  0  0  0  0  0  0  0
   21.6867   19.4175   21.6701 H   0  0  0  0  0  0  0  0  0  0  0  0
   19.5908   20.0966   21.4443 C   0  0  0  0  0  0  0  0  0  0  0  0
   18.9549   20.0531   20.5498 H   0  0  0  0  0  0  0  0  0  0  0  0
   20.0087   21.1119   21.4738 H   0  0  0  0  0  0  0  0  0  0  0  0
   18.7190   19.8605   22.6973 C   0  0  0  0  0  0  0  0  0  0  0  0
   17.8670   20.5539   22.6778 H   0  0  0  0  0  0  0  0  0  0  0  0
   18.2985   18.8457   22.6700 H   0  0  0  0  0  0  0  0  0  0  0  0
   19.5042   20.0628   24.0108 C   0  0  0  0  0  0  0  0  0  0  0  0
   19.9235   21.0758   24.0656 H   0  0  0  0  0  0  0  0  0  0  0  0
   18.8474   19.9204   24.8787 H   0  0  0  0  0  0  0  0  0  0  0  0
   20.3305   19.3447   24.0929 H   0  0  0  0  0  0  0  0  0  0  0  0
  1  2  1  0  0  0  0
  1  3  2  0  0  0  0
  1  4  1  0  0  0  0
  4  5  1  0  0  0  0
  4  6  2  0  0  0  0
  6  7  1  0  0  0  0
  6  8  1  0  0  0  0
  8  9  1  0  0  0  0
  8 10  1  0  0  0  0
  8 11  1  0  0  0  0
 11 12  1  0  0  0  0
 11 13  1  0  0  0  0
 11 14  1  0  0  0  0
 14 15  1  0  0  0  0
 14 16  1  0  0  0  0
 14 17  1  0  0  0  0
M  END
> <VConfSearch Rank>
59

> <Conf_Id>
3

> <Delta U+W>
0.531

> <U+W>
-52.878

> <U>
10.067

> <W>
-62.945

> <W(PB)>
-64.982

> <W(SA)>
2.037

> <Valence>
2.779

> <Coulomb>
6.474

> <VdW>
0.815

> <VdW6>
-5.088

> <VdW12>
5.902

> <Bond>
0.078

> <Angle>
2.651

> <Pdih>
0.050

> <Idih>
0.000

> <Tether>
0.000

$$$$
VeraChem MOL file


 17 16  0  0  0  0  0  0  0  0999 V2000     
   18.5003   20.7980   24.0897 C   0  0  0  0  0  0  0  0  0  0  0  0
   18.7152   21.9405   24.4451 O   0  5  0  0  0  0  0  0  0  0  0  0
   17.8534   20.0104   24.7541 O   0  0  0  0  0  0  0  0  0  0  0  0
   19.0608   20.3688   22.7798 C   0  0  0  0  0  0  0  0  0  0  0  0
   19.6282   21.1216   22.2377 H   0  0  0  0  0  0  0  0  0  0  0  0
   18.9024   19.1292   22.2623 C   0  0  0  0  0  0  0  0  0  0  0  0
   18.3384   18.3679   22.8006 H   0  0  0  0  0  0  0  0  0  0  0  0
   19.4765   18.6944   20.9297 C   0  0  0  0  0  0  0  0  0  0  0  0
   19.7533   19.5683   20.3246 H   0  0  0  0  0  0  0  0  0  0  0  0
   18.7012   18.1630   20.3617 H   0  0  0  0  0  0  0  0  0  0  0  0
   20.7010   17.7676   21.0935 C   0  0  0  0  0  0  0  0  0  0  0  0
   20.4257   16.8944   21.7010 H   0  0  0  0  0  0  0  0  0  0  0  0
   20.9944   17.3835   20.1067 H   0  0  0  0  0  0  0  0  0  0  0  0
   21.9085   18.4863   21.7326 C   0  0  0  0  0  0  0  0  0  0  0  0
   21.6732   18.8289   22.7486 H   0  0  0  0  0  0  0  0  0  0  0  0
   22.7705   17.8098   21.7971 H   0  0  0  0  0  0  0  0  0  0  0  0
   22.2061   19.3591   21.1370 H   0  0  0  0  0  0  0  0  0  0  0  0
  1  2  1  0  0  0  0
  1  3  2  0  0  0  0
  1  4  1  0  0  0  0
  4  5  1  0  0  0  0
  4  6  2  0  0  0  0
  6  7  1  0  0  0  0
  6  8  1  0  0  0  0
  8  9  1  0  0  0  0
  8 10  1  0  0  0  0
  8 11  1  0  0  0  0
 11 12  1  0  0  0  0
 11 13  1  0  0  0  0
 11 14  1  0  0  0  0
 14 15  1  0  0  0  0
 14 16  1  0  0  0  0
 14 17  1  0  0  0  0
M  END
> <VConfSearch Rank>
60

> <Conf_Id>
45

> <Delta U+W>
0.562

> <U+W>
-52.846

> <U>
10.243

> <W>
-63.089

> <W(PB)>
-65.116

> <W(SA)>
2.026

> <Valence>
2.822

> <Coulomb>
6.637

> <VdW>
0.785

> <VdW6>
-5.216

> <VdW12>
6.001

> <Bond>
0.080

> <Angle>
2.678

> <Pdih>
0.064

> <Idih>
0.000

> <Tether>
0.000

$$$$
VeraChem MOL file


 17 16  0  0  0  0  0  0  0  0999 V2000     
   18.8669   16.5645   23.8084 C   0  0  0  0  0  0  0  0  0  0  0  0
   19.2207   16.2152   24.9177 O   0  5  0  0  0  0  0  0  0  0  0  0
   18.1666   15.8753   23.0908 O   0  0  0  0  0  0  0  0  0  0  0  0
   19.3216   17.8981   23.3299 C   0  0  0  0  0  0  0  0  0  0  0  0
   19.9445   18.4628   24.0198 H   0  0  0  0  0  0  0  0  0  0  0  0
   19.0056   18.4126   22.1197 C   0  0  0  0  0  0  0  0  0  0  0  0
   18.3842   17.8543   21.4198 H   0  0  0  0  0  0  0  0  0  0  0  0
   19.4741   19.7689   21.6399 C   0  0  0  0  0  0  0  0  0  0  0  0
   19.4600   20.4869   22.4712 H   0  0  0  0  0  0  0  0  0  0  0  0
   18.7761   20.1527   20.8836 H   0  0  0  0  0  0  0  0  0  0  0  0
   20.8935   19.6936   21.0411 C   0  0  0  0  0  0  0  0  0  0  0  0
   21.5939   19.3137   21.7978 H   0  0  0  0  0  0  0  0  0  0  0  0
   20.9046   18.9764   20.2086 H   0  0  0  0  0  0  0  0  0  0  0  0
   21.3747   21.0705   20.5409 C   0  0  0  0  0  0  0  0  0  0  0  0
   20.7087   21.4595   19.7596 H   0  0  0  0  0  0  0  0  0  0  0  0
   21.4025   21.7990   21.3619 H   0  0  0  0  0  0  0  0  0  0  0  0
   22.3855   20.9970   20.1189 H   0  0  0  0  0  0  0  0  0  0  0  0
  1  2  1  0  0  0  0
  1  3  2  0  0  0  0
  1  4  1  0  0  0  0
  4  5  1  0  0  0  0
  4  6  2  0  0  0  0
  6  7  1  0  0  0  0
  6  8  1  0  0  0  0
  8  9  1  0  0  0  0
  8 10  1  0  0  0  0
  8 11  1  0  0  0  0
 11 12  1  0  0  0  0
 11 13  1  0  0  0  0
 11 14  1  0  0  0  0
 14 15  1  0  0  0  0
 14 16  1  0  0  0  0
 14 17  1  0  0  0  0
M  END
> <VConfSearch Rank>
61

> <Conf_Id>
36

> <Delta U+W>
0.000

> <U+W>
-53.409

> <U>
9.048

> <W>
-62.457

> <W(PB)>
-64.540

> <W(SA)>
2.084

> <Valence>
2.652

> <Coulomb>
5.578

> <VdW>
0.818

> <VdW6>
-4.534

> <VdW12>
5.352

> <Bond>
0.063

> <Angle>
2.579

> <Pdih>
0.010

> <Idih>
0.000

> <Tether>
0.000

$$$$
VeraChem MOL file


 17 16  0  0  0  0  0  0  0  0999 V2000     
   22.1958   16.6591   21.0815 C   0  0  0  0  0  0  0  0  0  0  0  0
   23.2360   16.9040   21.6631 O   0  5  0  0  0  0  0  0  0  0  0  0
   22.1075   15.8098   20.2163 O   0  0  0  0  0  0  0  0  0  0  0  0
   20.9637   17.4182   21.4280 C   0  0  0  0  0  0  0  0  0  0  0  0
   20.0688   17.1501   20.8712 H   0  0  0  0  0  0  0  0  0  0  0  0
   20.9162   18.3896   22.3677 C   0  0  0  0  0  0  0  0  0  0  0  0
   21.8075   18.6677   22.9300 H   0  0  0  0  0  0  0  0  0  0  0  0
   19.6594   19.1581   22.7128 C   0  0  0  0  0  0  0  0  0  0  0  0
   19.7328   19.5413   23.7395 H   0  0  0  0  0  0  0  0  0  0  0  0
   18.7906   18.4863   22.6913 H   0  0  0  0  0  0  0  0  0  0  0  0
   19.4336   20.3324   21.7386 C   0  0  0  0  0  0  0  0  0  0  0  0
   20.3029   21.0041   21.7634 H   0  0  0  0  0  0  0  0  0  0  0  0
   19.3558   19.9504   20.7112 H   0  0  0  0  0  0  0  0  0  0  0  0
   18.1592   21.1266   22.0891 C   0  0  0  0  0  0  0  0  0  0  0  0
   18.2241   21.5470   23.1013 H   0  0  0  0  0  0  0  0  0  0  0  0
   18.0154   21.9571   21.3859 H   0  0  0  0  0  0  0  0  0  0  0  0
   17.2702   20.4840   22.0410 H   0  0  0  0  0  0  0  0  0  0  0  0
  1  2  1  0  0  0  0
  1  3  2  0  0  0  0
  1  4  1  0  0  0  0
  4  5  1  0  0  0  0
  4  6  2  0  0  0  0
  6  7  1  0  0  0  0
  6  8  1  0  0  0  0
  8  9  1  0  0  0  0
  8 10  1  0  0  0  0
  8 11  1  0  0  0  0
 11 12  1  0  0  0  0
 11 13  1  0  0  0  0
 11 14  1  0  0  0  0
 14 15  1  0  0  0  0
 14 16  1  0  0  0  0
 14 17  1  0  0  0  0
M  END
> <VConfSearch Rank>
62

> <Conf_Id>
1

> <Delta U+W>
0.030

> <U+W>
-53.378

> <U>
9.048

> <W>
-62.426

> <W(PB)>
-64.506

> <W(SA)>
2.080

> <Valence>
2.652

> <Coulomb>
5.578

> <VdW>
0.818

> <VdW6>
-4.535

> <VdW12>
5.352

> <Bond>
0.063

> <Angle>
2.579

> <Pdih>
0.010

> <Idih>
0.000

> <Tether>
0.000

$$$$
VeraChem MOL file


 17 16  0  0  0  0  0  0  0  0999 V2000     
   17.0524   19.9085   22.2511 C   0  0  0  0  0  0  0  0  0  0  0  0
   16.5529   19.1174   21.4732 O   0  5  0  0  0  0  0  0  0  0  0  0
   16.3997   20.5435   23.0565 O   0  0  0  0  0  0  0  0  0  0  0  0
   18.5239   20.1283   22.2330 C   0  0  0  0  0  0  0  0  0  0  0  0
   18.9052   20.8488   22.9530 H   0  0  0  0  0  0  0  0  0  0  0  0
   19.3708   19.4909   21.3931 C   0  0  0  0  0  0  0  0  0  0  0  0
   19.0000   18.7646   20.6702 H   0  0  0  0  0  0  0  0  0  0  0  0
   20.8681   19.7169   21.3831 C   0  0  0  0  0  0  0  0  0  0  0  0
   21.0799   20.7872   21.5100 H   0  0  0  0  0  0  0  0  0  0  0  0
   21.2809   19.4371   20.4046 H   0  0  0  0  0  0  0  0  0  0  0  0
   21.5897   18.9229   22.4942 C   0  0  0  0  0  0  0  0  0  0  0  0
   22.6513   19.2058   22.5061 H   0  0  0  0  0  0  0  0  0  0  0  0
   21.1796   19.2017   23.4747 H   0  0  0  0  0  0  0  0  0  0  0  0
   21.4767   17.3959   22.2985 C   0  0  0  0  0  0  0  0  0  0  0  0
   21.8926   17.0924   21.3289 H   0  0  0  0  0  0  0  0  0  0  0  0
   22.0278   16.8643   23.0850 H   0  0  0  0  0  0  0  0  0  0  0  0
   20.4300   17.0676   22.3405 H   0  0  0  0  0  0  0  0  0  0  0  0
  1  2  1  0  0  0  0
  1  3  2  0  0  0  0
  1  4  1  0  0  0  0
  4  5  1  0  0  0  0
  4  6  2  0  0  0  0
  6  7  1  0  0  0  0
  6  8  1  0  0  0  0
  8  9  1  0  0  0  0
  8 10  1  0  0  0  0
  8 11  1  0  0  0  0
 11 12  1  0  0  0  0
 11 13  1  0  0  0  0
 11 14  1  0  0  0  0
 14 15  1  0  0  0  0
 14 16  1  0  0  0  0
 14 17  1  0  0  0  0
M  END
> <VConfSearch Rank>
63

> <Conf_Id>
3

> <Delta U+W>
0.531

> <U+W>
-52.878

> <U>
10.067

> <W>
-62.945

> <W(PB)>
-64.982

> <W(SA)>
2.037

> <Valence>
2.779

> <Coulomb>
6.474

> <VdW>
0.815

> <VdW6>
-5.088

> <VdW12>
5.902

> <Bond>
0.078

> <Angle>
2.651

> <Pdih>
0.050

> <Idih>
0.000

> <Tether>
0.000

$$$$
VeraChem MOL file


 17 16  0  0  0  0  0  0  0  0999 V2000     
   22.7448   19.3626   23.2548 C   0  0  0  0  0  0  0  0  0  0  0  0
   23.4611   20.3412   23.3387 O   0  5  0  0  0  0  0  0  0  0  0  0
   23.1714   18.2247   23.3174 O   0  0  0  0  0  0  0  0  0  0  0  0
   21.2862   19.5921   23.0708 C   0  0  0  0  0  0  0  0  0  0  0  0
   20.9725   20.6323   23.0231 H   0  0  0  0  0  0  0  0  0  0  0  0
   20.3751   18.5985   22.9601 C   0  0  0  0  0  0  0  0  0  0  0  0
   20.6813   17.5535   23.0031 H   0  0  0  0  0  0  0  0  0  0  0  0
   18.8911   18.8353   22.7701 C   0  0  0  0  0  0  0  0  0  0  0  0
   18.6268   19.8669   23.0397 H   0  0  0  0  0  0  0  0  0  0  0  0
   18.3337   18.1873   23.4596 H   0  0  0  0  0  0  0  0  0  0  0  0
   18.4311   18.5424   21.3252 C   0  0  0  0  0  0  0  0  0  0  0  0
   18.6975   17.5115   21.0539 H   0  0  0  0  0  0  0  0  0  0  0  0
   17.3352   18.6061   21.2781 H   0  0  0  0  0  0  0  0  0  0  0  0
   19.0365   19.5236   20.2988 C   0  0  0  0  0  0  0  0  0  0  0  0
   20.1308   19.4425   20.2709 H   0  0  0  0  0  0  0  0  0  0  0  0
   18.6577   19.3103   19.2909 H   0  0  0  0  0  0  0  0  0  0  0  0
   18.7761   20.5609   20.5465 H   0  0  0  0  0  0  0  0  0  0  0  0
  1  2  1  0  0  0  0
  1  3  2  0  0  0  0
  1  4  1  0  0  0  0
  4  5  1  0  0  0  0
  4  6  2  0  0  0  0
  6  7  1  0  0  0  0
  6  8  1  0  0  0  0
  8  9  1  0  0  0  0
  8 10  1  0  0  0  0
  8 11  1  0  0  0  0
 11 12  1  0  0  0  0
 11 13  1  0  0  0  0
 11 14  1  0  0  0  0
 14 15  1  0  0  0  0
 14 16  1  0  0  0  0
 14 17  1  0  0  0  0
M  END
> <VConfSearch Rank>
64

> <Conf_Id>
45

> <Delta U+W>
0.562

> <U+W>
-52.846

> <U>
10.243

> <W>
-63.089

> <W(PB)>
-65.116

> <W(SA)>
2.026

> <Valence>
2.822

> <Coulomb>
6.637

> <VdW>
0.785

> <VdW6>
-5.216

> <VdW12>
6.001

> <Bond>
0.080

> <Angle>
2.678

> <Pdih>
0.064

> <Idih>
0.000

> <Tether>
0.000

$$$$
VeraChem MOL file


 17 16  0  0  0  0  0  0  0  0999 V2000     
   19.9573   20.5907   24.9478 C   0  0  0  0  0  0  0  0  0  0  0  0
   20.8769   20.7896   25.7175 O   0  5  0  0  0  0  0  0  0  0  0  0
   18.7896   20.7055   25.2700 O   0  0  0  0  0  0  0  0  0  0  0  0
   20.2997   20.1917   23.5558 C   0  0  0  0  0  0  0  0  0  0  0  0
   21.3611   20.1073   23.3338 H   0  0  0  0  0  0  0  0  0  0  0  0
   19.3806   19.9381   22.5967 C   0  0  0  0  0  0  0  0  0  0  0  0
   18.3146   20.0173   22.8089 H   0  0  0  0  0  0  0  0  0  0  0  0
   19.7373   19.5307   21.1839 C   0  0  0  0  0  0  0  0  0  0  0  0
   20.6248   20.0832   20.8464 H   0  0  0  0  0  0  0  0  0  0  0  0
   18.9201   19.8068   20.5040 H   0  0  0  0  0  0  0  0  0  0  0  0
   20.0000   18.0140   21.0858 C   0  0  0  0  0  0  0  0  0  0  0  0
   20.8203   17.7367   21.7624 H   0  0  0  0  0  0  0  0  0  0  0  0
   19.1103   17.4635   21.4219 H   0  0  0  0  0  0  0  0  0  0  0  0
   20.3551   17.5890   19.6468 C   0  0  0  0  0  0  0  0  0  0  0  0
   19.5372   17.8263   18.9538 H   0  0  0  0  0  0  0  0  0  0  0  0
   21.2604   18.1027   19.2975 H   0  0  0  0  0  0  0  0  0  0  0  0
   20.5385   16.5078   19.5969 H   0  0  0  0  0  0  0  0  0  0  0  0
  1  2  1  0  0  0  0
  1  3  2  0  0  0  0
  1  4  1  0  0  0  0
  4  5  1  0  0  0  0
  4  6  2  0  0  0  0
  6  7  1  0  0  0  0
  6  8  1  0  0  0  0
  8  9  1  0  0  0  0
  8 10  1  0  0  0  0
  8 11  1  0  0  0  0
 11 12  1  0  0  0  0
 11 13  1  0  0  0  0
 11 14  1  0  0  0  0
 14 15  1  0  0  0  0
 14 16  1  0  0  0  0
 14 17  1  0  0  0  0
M  END
> <VConfSearch Rank>
65

> <Conf_Id>
36

> <Delta U+W>
0.000

> <U+W>
-53.409

> <U>
9.048

> <W>
-62.457

> <W(PB)>
-64.540

> <W(SA)>
2.084

> <Valence>
2.652

> <Coulomb>
5.578

> <VdW>
0.818

> <VdW6>
-4.534

> <VdW12>
5.352

> <Bond>
0.063

> <Angle>
2.579

> <Pdih>
0.010

> <Idih>
0.000

> <Tether>
0.000

$$$$
VeraChem MOL file


 17 16  0  0  0  0  0  0  0  0999 V2000     
   18.2565   21.7486   20.8013 C   0  0  0  0  0  0  0  0  0  0  0  0
   18.9486   22.7321   20.9862 O   0  5  0  0  0  0  0  0  0  0  0  0
   17.0864   21.8162   20.4786 O   0  0  0  0  0  0  0  0  0  0  0  0
   18.8459   20.3928   20.9701 C   0  0  0  0  0  0  0  0  0  0  0  0
   18.1736   19.5572   20.7897 H   0  0  0  0  0  0  0  0  0  0  0  0
   20.1312   20.1688   21.3265 C   0  0  0  0  0  0  0  0  0  0  0  0
   20.8128   20.9987   21.5117 H   0  0  0  0  0  0  0  0  0  0  0  0
   20.7224   18.7866   21.4978 C   0  0  0  0  0  0  0  0  0  0  0  0
   21.8094   18.8302   21.3469 H   0  0  0  0  0  0  0  0  0  0  0  0
   20.3268   18.1108   20.7274 H   0  0  0  0  0  0  0  0  0  0  0  0
   20.4182   18.2149   22.8977 C   0  0  0  0  0  0  0  0  0  0  0  0
   20.8167   18.8915   23.6665 H   0  0  0  0  0  0  0  0  0  0  0  0
   19.3308   18.1668   23.0488 H   0  0  0  0  0  0  0  0  0  0  0  0
   21.0254   16.8098   23.0836 C   0  0  0  0  0  0  0  0  0  0  0  0
   22.1170   16.8351   22.9690 H   0  0  0  0  0  0  0  0  0  0  0  0
   20.7987   16.4199   24.0845 H   0  0  0  0  0  0  0  0  0  0  0  0
   20.6192   16.1056   22.3457 H   0  0  0  0  0  0  0  0  0  0  0  0
  1  2  1  0  0  0  0
  1  3  2  0  0  0  0
  1  4  1  0  0  0  0
  4  5  1  0  0  0  0
  4  6  2  0  0  0  0
  6  7  1  0  0  0  0
  6  8  1  0  0  0  0
  8  9  1  0  0  0  0
  8 10  1  0  0  0  0
  8 11  1  0  0  0  0
 11 12  1  0  0  0  0
 11 13  1  0  0  0  0
 11 14  1  0  0  0  0
 14 15  1  0  0  0  0
 14 16  1  0  0  0  0
 14 17  1  0  0  0  0
M  END
> <VConfSearch Rank>
66

> <Conf_Id>
1

> <Delta U+W>
0.030

> <U+W>
-53.378

> <U>
9.048

> <W>
-62.426

> <W(PB)>
-64.506

> <W(SA)>
2.080

> <Valence>
2.652

> <Coulomb>
5.578

> <VdW>
0.818

> <VdW6>
-4.535

> <VdW12>
5.352

> <Bond>
0.063

> <Angle>
2.579

> <Pdih>
0.010

> <Idih>
0.000

> <Tether>
0.000

$$$$
VeraChem MOL file


 17 16  0  0  0  0  0  0  0  0999 V2000     
   20.0610   16.1168   22.8693 C   0  0  0  0  0  0  0  0  0  0  0  0
   21.2090   15.8289   22.5868 O   0  5  0  0  0  0  0  0  0  0  0  0
   19.3623   15.4214   23.5807 O   0  0  0  0  0  0  0  0  0  0  0  0
   19.4626   17.3677   22.3298 C   0  0  0  0  0  0  0  0  0  0  0  0
   18.4332   17.5650   22.6199 H   0  0  0  0  0  0  0  0  0  0  0  0
   20.1228   18.2346   21.5289 C   0  0  0  0  0  0  0  0  0  0  0  0
   21.1556   18.0485   21.2348 H   0  0  0  0  0  0  0  0  0  0  0  0
   19.5084   19.5080   20.9868 C   0  0  0  0  0  0  0  0  0  0  0  0
   18.4700   19.3161   20.6841 H   0  0  0  0  0  0  0  0  0  0  0  0
   20.0394   19.8207   20.0776 H   0  0  0  0  0  0  0  0  0  0  0  0
   19.5308   20.6570   22.0187 C   0  0  0  0  0  0  0  0  0  0  0  0
   18.9811   21.5166   21.6112 H   0  0  0  0  0  0  0  0  0  0  0  0
   18.9990   20.3475   22.9292 H   0  0  0  0  0  0  0  0  0  0  0  0
   20.9647   21.1001   22.3795 C   0  0  0  0  0  0  0  0  0  0  0  0
   21.5117   21.4260   21.4852 H   0  0  0  0  0  0  0  0  0  0  0  0
   20.9429   21.9384   23.0877 H   0  0  0  0  0  0  0  0  0  0  0  0
   21.5271   20.2805   22.8456 H   0  0  0  0  0  0  0  0  0  0  0  0
  1  2  1  0  0  0  0
  1  3  2  0  0  0  0
  1  4  1  0  0  0  0
  4  5  1  0  0  0  0
  4  6  2  0  0  0  0
  6  7  1  0  0  0  0
  6  8  1  0  0  0  0
  8  9  1  0  0  0  0
  8 10  1  0  0  0  0
  8 11  1  0  0  0  0
 11 12  1  0  0  0  0
 11 13  1  0  0  0  0
 11 14  1  0  0  0  0
 14 15  1  0  0  0  0
 14 16  1  0  0  0  0
 14 17  1  0  0  0  0
M  END
> <VConfSearch Rank>
67

> <Conf_Id>
3

> <Delta U+W>
0.531

> <U+W>
-52.878

> <U>
10.067

> <W>
-62.945

> <W(PB)>
-64.982

> <W(SA)>
2.037

> <Valence>
2.779

> <Coulomb>
6.474

> <VdW>
0.815

> <VdW6>
-5.088

> <VdW12>
5.902

> <Bond>
0.078

> <Angle>
2.651

> <Pdih>
0.050

> <Idih>
0.000

> <Tether>
0.000

$$$$
VeraChem MOL file


 17 16  0  0  0  0  0  0  0  0999 V2000     
   20.5467   19.4522   25.0210 C   0  0  0  0  0  0  0  0  0  0  0  0
   19.8016   19.3314   25.9739 O   0  5  0  0  0  0  0  0  0  0  0  0
   21.5817   20.0900   25.0687 O   0  0  0  0  0  0  0  0  0  0  0  0
   20.1556   18.7788   23.7530 C   0  0  0  0  0  0  0  0  0  0  0  0
   19.2195   18.2258   23.7793 H   0  0  0  0  0  0  0  0  0  0  0  0
   20.8863   18.8304   22.6159 C   0  0  0  0  0  0  0  0  0  0  0  0
   21.8235   19.3852   22.5798 H   0  0  0  0  0  0  0  0  0  0  0  0
   20.4841   18.1460   21.3258 C   0  0  0  0  0  0  0  0  0  0  0  0
   19.7215   17.3788   21.5168 H   0  0  0  0  0  0  0  0  0  0  0  0
   21.3539   17.6162   20.9150 H   0  0  0  0  0  0  0  0  0  0  0  0
   19.9619   19.1453   20.2704 C   0  0  0  0  0  0  0  0  0  0  0  0
   20.7232   19.9147   20.0807 H   0  0  0  0  0  0  0  0  0  0  0  0
   19.8079   18.6153   19.3203 H   0  0  0  0  0  0  0  0  0  0  0  0
   18.6375   19.8166   20.6922 C   0  0  0  0  0  0  0  0  0  0  0  0
   18.7679   20.4105   21.6062 H   0  0  0  0  0  0  0  0  0  0  0  0
   18.2770   20.4889   19.9030 H   0  0  0  0  0  0  0  0  0  0  0  0
   17.8591   19.0656   20.8798 H   0  0  0  0  0  0  0  0  0  0  0  0
  1  2  1  0  0  0  0
  1  3  2  0  0  0  0
  1  4  1  0  0  0  0
  4  5  1  0  0  0  0
  4  6  2  0  0  0  0
  6  7  1  0  0  0  0
  6  8  1  0  0  0  0
  8  9  1  0  0  0  0
  8 10  1  0  0  0  0
  8 11  1  0  0  0  0
 11 12  1  0  0  0  0
 11 13  1  0  0  0  0
 11 14  1  0  0  0  0
 14 15  1  0  0  0  0
 14 16  1  0  0  0  0
 14 17  1  0  0  0  0
M  END
> <VConfSearch Rank>
68

> <Conf_Id>
45

> <Delta U+W>
0.562

> <U+W>
-52.846

> <U>
10.243

> <W>
-63.089

> <W(PB)>
-65.116

> <W(SA)>
2.026

> <Valence>
2.822

> <Coulomb>
6.637

> <VdW>
0.785

> <VdW6>
-5.216

> <VdW12>
6.001

> <Bond>
0.080

> <Angle>
2.678

> <Pdih>
0.064

> <Idih>
0.000

> <Tether>
0.000

$$$$
VeraChem MOL file


 17 16  0  0  0  0  0  0  0  0999 V2000     
   23.1350   20.2168   22.4602 C   0  0  0  0  0  0  0  0  0  0  0  0
   23.7615   20.2699   23.5006 O   0  5  0  0  0  0  0  0  0  0  0  0
   23.4914   20.7845   21.4447 O   0  0  0  0  0  0  0  0  0  0  0  0
   21.8814   19.4152   22.4526 C   0  0  0  0  0  0  0  0  0  0  0  0
   21.6202   18.9338   23.3922 H   0  0  0  0  0  0  0  0  0  0  0  0
   21.0861   19.2700   21.3684 C   0  0  0  0  0  0  0  0  0  0  0  0
   21.3371   19.7498   20.4226 H   0  0  0  0  0  0  0  0  0  0  0  0
   19.8116   18.4546   21.3697 C   0  0  0  0  0  0  0  0  0  0  0  0
   19.9464   17.5480   21.9752 H   0  0  0  0  0  0  0  0  0  0  0  0
   19.5894   18.1178   20.3481 H   0  0  0  0  0  0  0  0  0  0  0  0
   18.6222   19.2720   21.9139 C   0  0  0  0  0  0  0  0  0  0  0  0
   18.8412   19.6062   22.9376 H   0  0  0  0  0  0  0  0  0  0  0  0
   18.4881   20.1772   21.3054 H   0  0  0  0  0  0  0  0  0  0  0  0
   17.3171   18.4509   21.9097 C   0  0  0  0  0  0  0  0  0  0  0  0
   17.0575   18.1307   20.8921 H   0  0  0  0  0  0  0  0  0  0  0  0
   17.4146   17.5550   22.5368 H   0  0  0  0  0  0  0  0  0  0  0  0
   16.4830   19.0485   22.2999 H   0  0  0  0  0  0  0  0  0  0  0  0
  1  2  1  0  0  0  0
  1  3  2  0  0  0  0
  1  4  1  0  0  0  0
  4  5  1  0  0  0  0
  4  6  2  0  0  0  0
  6  7  1  0  0  0  0
  6  8  1  0  0  0  0
  8  9  1  0  0  0  0
  8 10  1  0  0  0  0
  8 11  1  0  0  0  0
 11 12  1  0  0  0  0
 11 13  1  0  0  0  0
 11 14  1  0  0  0  0
 14 15  1  0  0  0  0
 14 16  1  0  0  0  0
 14 17  1  0  0  0  0
M  END
> <VConfSearch Rank>
69

> <Conf_Id>
36

> <Delta U+W>
0.000

> <U+W>
-53.409

> <U>
9.048

> <W>
-62.457

> <W(PB)>
-64.540

> <W(SA)>
2.084

> <Valence>
2.652

> <Coulomb>
5.578

> <VdW>
0.818

> <VdW6>
-4.534

> <VdW12>
5.352

> <Bond>
0.063

> <Angle>
2.579

> <Pdih>
0.010

> <Idih>
0.000

> <Tether>
0.000

$$$$
VeraChem MOL file


 17 16  0  0  0  0  0  0  0  0999 V2000     
   20.2499   21.8604   23.8281 C   0  0  0  0  0  0  0  0  0  0  0  0
   19.1547   22.0381   24.3274 O   0  5  0  0  0  0  0  0  0  0  0  0
   21.1413   22.6851   23.8816 O   0  0  0  0  0  0  0  0  0  0  0  0
   20.5351   20.5850   23.1166 C   0  0  0  0  0  0  0  0  0  0  0  0
   21.5326   20.4902   22.6937 H   0  0  0  0  0  0  0  0  0  0  0  0
   19.6385   19.5818   22.9792 C   0  0  0  0  0  0  0  0  0  0  0  0
   18.6356   19.6671   23.3971 H   0  0  0  0  0  0  0  0  0  0  0  0
   19.9360   18.2885   22.2525 C   0  0  0  0  0  0  0  0  0  0  0  0
   19.2794   17.4939   22.6319 H   0  0  0  0  0  0  0  0  0  0  0  0
   20.9661   17.9689   22.4610 H   0  0  0  0  0  0  0  0  0  0  0  0
   19.7361   18.4403   20.7306 C   0  0  0  0  0  0  0  0  0  0  0  0
   18.7045   18.7579   20.5244 H   0  0  0  0  0  0  0  0  0  0  0  0
   20.3953   19.2322   20.3486 H   0  0  0  0  0  0  0  0  0  0  0  0
   20.0284   17.1236   19.9834 C   0  0  0  0  0  0  0  0  0  0  0  0
   19.3605   16.3216   20.3243 H   0  0  0  0  0  0  0  0  0  0  0  0
   19.8809   17.2510   18.9031 H   0  0  0  0  0  0  0  0  0  0  0  0
   21.0646   16.8002   20.1481 H   0  0  0  0  0  0  0  0  0  0  0  0
  1  2  1  0  0  0  0
  1  3  2  0  0  0  0
  1  4  1  0  0  0  0
  4  5  1  0  0  0  0
  4  6  2  0  0  0  0
  6  7  1  0  0  0  0
  6  8  1  0  0  0  0
  8  9  1  0  0  0  0
  8 10  1  0  0  0  0
  8 11  1  0  0  0  0
 11 12  1  0  0  0  0
 11 13  1  0  0  0  0
 11 14  1  0  0  0  0
 14 15  1  0  0  0  0
 14 16  1  0  0  0  0
 14 17  1  0  0  0  0
M  END
> <VConfSearch Rank>
70

> <Conf_Id>
1

> <Delta U+W>
0.030

> <U+W>
-53.378

> <U>
9.048

> <W>
-62.426

> <W(PB)>
-64.506

> <W(SA)>
2.080

> <Valence>
2.652

> <Coulomb>
5.578

> <VdW>
0.818

> <VdW6>
-4.535

> <VdW12>
5.352

> <Bond>
0.063

> <Angle>
2.579

> <Pdih>
0.010

> <Idih>
0.000

> <Tether>
0.000

$$$$
VeraChem MOL file


 17 16  0  0  0  0  0  0  0  0999 V2000     
   17.9446   20.5013   23.8418 C   0  0  0  0  0  0  0  0  0  0  0  0
   17.2404   19.5577   24.1487 O   0  5  0  0  0  0  0  0  0  0  0  0
   17.9148   21.5653   24.4290 O   0  0  0  0  0  0  0  0  0  0  0  0
   18.8891   20.3731   22.6992 C   0  0  0  0  0  0  0  0  0  0  0  0
   19.4881   21.2533   22.4773 H   0  0  0  0  0  0  0  0  0  0  0  0
   19.0283   19.2499   21.9589 C   0  0  0  0  0  0  0  0  0  0  0  0
   18.4357   18.3612   22.1746 H   0  0  0  0  0  0  0  0  0  0  0  0
   19.9947   19.1255   20.7997 C   0  0  0  0  0  0  0  0  0  0  0  0
   19.9875   20.0540   20.2129 H   0  0  0  0  0  0  0  0  0  0  0  0
   19.6605   18.3308   20.1193 H   0  0  0  0  0  0  0  0  0  0  0  0
   21.4376   18.8327   21.2664 C   0  0  0  0  0  0  0  0  0  0  0  0
   22.1085   18.8581   20.3967 H   0  0  0  0  0  0  0  0  0  0  0  0
   21.7753   19.6269   21.9465 H   0  0  0  0  0  0  0  0  0  0  0  0
   21.5670   17.4615   21.9635 C   0  0  0  0  0  0  0  0  0  0  0  0
   21.2464   16.6503   21.2969 H   0  0  0  0  0  0  0  0  0  0  0  0
   22.6091   17.2718   22.2513 H   0  0  0  0  0  0  0  0  0  0  0  0
   20.9539   17.4203   22.8732 H   0  0  0  0  0  0  0  0  0  0  0  0
  1  2  1  0  0  0  0
  1  3  2  0  0  0  0
  1  4  1  0  0  0  0
  4  5  1  0  0  0  0
  4  6  2  0  0  0  0
  6  7  1  0  0  0  0
  6  8  1  0  0  0  0
  8  9  1  0  0  0  0
  8 10  1  0  0  0  0
  8 11  1  0  0  0  0
 11 12  1  0  0  0  0
 11 13  1  0  0  0  0
 11 14  1  0  0  0  0
 14 15  1  0  0  0  0
 14 16  1  0  0  0  0
 14 17  1  0  0  0  0
M  END
> <VConfSearch Rank>
71

> <Conf_Id>
3

> <Delta U+W>
0.531

> <U+W>
-52.878

> <U>
10.067

> <W>
-62.945

> <W(PB)>
-64.982

> <W(SA)>
2.037

> <Valence>
2.779

> <Coulomb>
6.474

> <VdW>
0.815

> <VdW6>
-5.088

> <VdW12>
5.902

> <Bond>
0.078

> <Angle>
2.651

> <Pdih>
0.050

> <Idih>
0.000

> <Tether>
0.000

$$$$
VeraChem MOL file


 17 16  0  0  0  0  0  0  0  0999 V2000     
   22.9771   18.8552   21.8357 C   0  0  0  0  0  0  0  0  0  0  0  0
   23.7915   18.4758   22.6546 O   0  5  0  0  0  0  0  0  0  0  0  0
   23.2749   19.5456   20.8791 O   0  0  0  0  0  0  0  0  0  0  0  0
   21.5613   18.4414   22.0317 C   0  0  0  0  0  0  0  0  0  0  0  0
   21.3644   17.8253   22.9060 H   0  0  0  0  0  0  0  0  0  0  0  0
   20.5521   18.7917   21.2021 C   0  0  0  0  0  0  0  0  0  0  0  0
   20.7400   19.4118   20.3259 H   0  0  0  0  0  0  0  0  0  0  0  0
   19.1112   18.3712   21.4058 C   0  0  0  0  0  0  0  0  0  0  0  0
   19.0507   17.5245   22.1031 H   0  0  0  0  0  0  0  0  0  0  0  0
   18.7049   18.0103   20.4515 H   0  0  0  0  0  0  0  0  0  0  0  0
   18.2293   19.5303   21.9194 C   0  0  0  0  0  0  0  0  0  0  0  0
   18.2914   20.3787   21.2238 H   0  0  0  0  0  0  0  0  0  0  0  0
   17.1795   19.2062   21.9261 H   0  0  0  0  0  0  0  0  0  0  0  0
   18.6223   19.9917   23.3391 C   0  0  0  0  0  0  0  0  0  0  0  0
   19.6474   20.3839   23.3586 H   0  0  0  0  0  0  0  0  0  0  0  0
   17.9510   20.7878   23.6860 H   0  0  0  0  0  0  0  0  0  0  0  0
   18.5600   19.1603   24.0533 H   0  0  0  0  0  0  0  0  0  0  0  0
  1  2  1  0  0  0  0
  1  3  2  0  0  0  0
  1  4  1  0  0  0  0
  4  5  1  0  0  0  0
  4  6  2  0  0  0  0
  6  7  1  0  0  0  0
  6  8  1  0  0  0  0
  8  9  1  0  0  0  0
  8 10  1  0  0  0  0
  8 11  1  0  0  0  0
 11 12  1  0  0  0  0
 11 13  1  0  0  0  0
 11 14  1  0  0  0  0
 14 15  1  0  0  0  0
 14 16  1  0  0  0  0
 14 17  1  0  0  0  0
M  END
> <VConfSearch Rank>
72

> <Conf_Id>
45

> <Delta U+W>
0.562

> <U+W>
-52.846

> <U>
10.243

> <W>
-63.089

> <W(PB)>
-65.116

> <W(SA)>
2.026

> <Valence>
2.822

> <Coulomb>
6.637

> <VdW>
0.785

> <VdW6>
-5.216

> <VdW12>
6.001

> <Bond>
0.080

> <Angle>
2.678

> <Pdih>
0.064

> <Idih>
0.000

> <Tether>
0.000

$$$$
VeraChem MOL file


 17 16  0  0  0  0  0  0  0  0999 V2000     
   18.3711   19.7760   19.0302 C   0  0  0  0  0  0  0  0  0  0  0  0
   18.7637   19.6689   17.8847 O   0  5  0  0  0  0  0  0  0  0  0  0
   17.3541   20.3745   19.3267 O   0  0  0  0  0  0  0  0  0  0  0  0
   19.1861   19.1374   20.0989 C   0  0  0  0  0  0  0  0  0  0  0  0
   20.0822   18.6186   19.7662 H   0  0  0  0  0  0  0  0  0  0  0  0
   18.8702   19.1776   21.4133 C   0  0  0  0  0  0  0  0  0  0  0  0
   17.9759   19.6966   21.7578 H   0  0  0  0  0  0  0  0  0  0  0  0
   19.7057   18.5273   22.4941 C   0  0  0  0  0  0  0  0  0  0  0  0
   20.0992   17.5657   22.1372 H   0  0  0  0  0  0  0  0  0  0  0  0
   19.0727   18.3026   23.3632 H   0  0  0  0  0  0  0  0  0  0  0  0
   20.8723   19.4386   22.9272 C   0  0  0  0  0  0  0  0  0  0  0  0
   21.5090   19.6609   22.0596 H   0  0  0  0  0  0  0  0  0  0  0  0
   20.4761   20.3988   23.2857 H   0  0  0  0  0  0  0  0  0  0  0  0
   21.7234   18.7868   24.0355 C   0  0  0  0  0  0  0  0  0  0  0  0
   21.1171   18.5828   24.9278 H   0  0  0  0  0  0  0  0  0  0  0  0
   22.1572   17.8387   23.6914 H   0  0  0  0  0  0  0  0  0  0  0  0
   22.5477   19.4493   24.3302 H   0  0  0  0  0  0  0  0  0  0  0  0
  1  2  1  0  0  0  0
  1  3  2  0  0  0  0
  1  4  1  0  0  0  0
  4  5  1  0  0  0  0
  4  6  2  0  0  0  0
  6  7  1  0  0  0  0
  6  8  1  0  0  0  0
  8  9  1  0  0  0  0
  8 10  1  0  0  0  0
  8 11  1  0  0  0  0
 11 12  1  0  0  0  0
 11 13  1  0  0  0  0
 11 14  1  0  0  0  0
 14 15  1  0  0  0  0
 14 16  1  0  0  0  0
 14 17  1  0  0  0  0
M  END
> <VConfSearch Rank>
73

> <Conf_Id>
36

> <Delta U+W>
0.000

> <U+W>
-53.409

> <U>
9.048

> <W>
-62.457

> <W(PB)>
-64.540

> <W(SA)>
2.084

> <Valence>
2.652

> <Coulomb>
5.578

> <VdW>
0.818

> <VdW6>
-4.534

> <VdW12>
5.352

> <Bond>
0.063

> <Angle>
2.579

> <Pdih>
0.010

> <Idih>
0.000

> <Tether>
0.000

$$$$
VeraChem MOL file


 17 16  0  0  0  0  0  0  0  0999 V2000     
   22.3834   21.4240   22.4896 C   0  0  0  0  0  0  0  0  0  0  0  0
   23.3911   20.8280   22.8210 O   0  5  0  0  0  0  0  0  0  0  0  0
   22.2687   22.6304   22.5848 O   0  0  0  0  0  0  0  0  0  0  0  0
   21.2280   20.6648   21.9394 C   0  0  0  0  0  0  0  0  0  0  0  0
   20.3590   21.2575   21.6627 H   0  0  0  0  0  0  0  0  0  0  0  0
   21.2161   19.3219   21.7788 C   0  0  0  0  0  0  0  0  0  0  0  0
   22.0804   18.7182   22.0548 H   0  0  0  0  0  0  0  0  0  0  0  0
   20.0360   18.5573   21.2202 C   0  0  0  0  0  0  0  0  0  0  0  0
   20.3847   17.6138   20.7790 H   0  0  0  0  0  0  0  0  0  0  0  0
   19.5691   19.1290   20.4067 H   0  0  0  0  0  0  0  0  0  0  0  0
   18.9903   18.2600   22.3143 C   0  0  0  0  0  0  0  0  0  0  0  0
   19.4591   17.6862   23.1258 H   0  0  0  0  0  0  0  0  0  0  0  0
   18.6373   19.2032   22.7540 H   0  0  0  0  0  0  0  0  0  0  0  0
   17.7884   17.4726   21.7548 C   0  0  0  0  0  0  0  0  0  0  0  0
   18.1097   16.5095   21.3369 H   0  0  0  0  0  0  0  0  0  0  0  0
   17.0558   17.2706   22.5471 H   0  0  0  0  0  0  0  0  0  0  0  0
   17.2825   18.0389   20.9619 H   0  0  0  0  0  0  0  0  0  0  0  0
  1  2  1  0  0  0  0
  1  3  2  0  0  0  0
  1  4  1  0  0  0  0
  4  5  1  0  0  0  0
  4  6  2  0  0  0  0
  6  7  1  0  0  0  0
  6  8  1  0  0  0  0
  8  9  1  0  0  0  0
  8 10  1  0  0  0  0
  8 11  1  0  0  0  0
 11 12  1  0  0  0  0
 11 13  1  0  0  0  0
 11 14  1  0  0  0  0
 14 15  1  0  0  0  0
 14 16  1  0  0  0  0
 14 17  1  0  0  0  0
M  END
> <VConfSearch Rank>
74

> <Conf_Id>
1

> <Delta U+W>
0.030

> <U+W>
-53.378

> <U>
9.048

> <W>
-62.426

> <W(PB)>
-64.506

> <W(SA)>
2.080

> <Valence>
2.652

> <Coulomb>
5.578

> <VdW>
0.818

> <VdW6>
-4.535

> <VdW12>
5.352

> <Bond>
0.063

> <Angle>
2.579

> <Pdih>
0.010

> <Idih>
0.000

> <Tether>
0.000

$$$$
VeraChem MOL file


 17 16  0  0  0  0  0  0  0  0999 V2000     
   18.7249   17.1335   24.0534 C   0  0  0  0  0  0  0  0  0  0  0  0
   18.5622   16.1627   23.3382 O   0  5  0  0  0  0  0  0  0  0  0  0
   18.6644   17.0771   25.2662 O   0  0  0  0  0  0  0  0  0  0  0  0
   19.0080   18.4594   23.4402 C   0  0  0  0  0  0  0  0  0  0  0  0
   19.1421   19.2850   24.1353 H   0  0  0  0  0  0  0  0  0  0  0  0
   19.1045   18.6682   22.1075 C   0  0  0  0  0  0  0  0  0  0  0  0
   18.9753   17.8475   21.4023 H   0  0  0  0  0  0  0  0  0  0  0  0
   19.3968   20.0200   21.4908 C   0  0  0  0  0  0  0  0  0  0  0  0
   18.8407   20.7988   22.0300 H   0  0  0  0  0  0  0  0  0  0  0  0
   19.0315   20.0443   20.4553 H   0  0  0  0  0  0  0  0  0  0  0  0
   20.9023   20.3639   21.5155 C   0  0  0  0  0  0  0  0  0  0  0  0
   21.0418   21.3924   21.1549 H   0  0  0  0  0  0  0  0  0  0  0  0
   21.2705   20.3416   22.5506 H   0  0  0  0  0  0  0  0  0  0  0  0
   21.7423   19.4057   20.6442 C   0  0  0  0  0  0  0  0  0  0  0  0
   21.3998   19.4211   19.6014 H   0  0  0  0  0  0  0  0  0  0  0  0
   22.8000   19.6989   20.6579 H   0  0  0  0  0  0  0  0  0  0  0  0
   21.6745   18.3737   21.0122 H   0  0  0  0  0  0  0  0  0  0  0  0
  1  2  1  0  0  0  0
  1  3  2  0  0  0  0
  1  4  1  0  0  0  0
  4  5  1  0  0  0  0
  4  6  2  0  0  0  0
  6  7  1  0  0  0  0
  6  8  1  0  0  0  0
  8  9  1  0  0  0  0
  8 10  1  0  0  0  0
  8 11  1  0  0  0  0
 11 12  1  0  0  0  0
 11 13  1  0  0  0  0
 11 14  1  0  0  0  0
 14 15  1  0  0  0  0
 14 16  1  0  0  0  0
 14 17  1  0  0  0  0
M  END
> <VConfSearch Rank>
75

> <Conf_Id>
3

> <Delta U+W>
0.531

> <U+W>
-52.878

> <U>
10.067

> <W>
-62.945

> <W(PB)>
-64.982

> <W(SA)>
2.037

> <Valence>
2.779

> <Coulomb>
6.474

> <VdW>
0.815

> <VdW6>
-5.088

> <VdW12>
5.902

> <Bond>
0.078

> <Angle>
2.651

> <Pdih>
0.050

> <Idih>
0.000

> <Tether>
0.000

$$$$
VeraChem MOL file


 17 16  0  0  0  0  0  0  0  0999 V2000     
   21.4346   16.6924   20.9814 C   0  0  0  0  0  0  0  0  0  0  0  0
   22.6189   16.5424   20.7518 O   0  5  0  0  0  0  0  0  0  0  0  0
   20.5706   16.0051   20.4700 O   0  0  0  0  0  0  0  0  0  0  0  0
   21.0502   17.7678   21.9352 C   0  0  0  0  0  0  0  0  0  0  0  0
   21.8712   18.3441   22.3555 H   0  0  0  0  0  0  0  0  0  0  0  0
   19.7727   18.0475   22.2807 C   0  0  0  0  0  0  0  0  0  0  0  0
   18.9440   17.4774   21.8614 H   0  0  0  0  0  0  0  0  0  0  0  0
   19.3844   19.1448   23.2499 C   0  0  0  0  0  0  0  0  0  0  0  0
   20.2516   19.4573   23.8475 H   0  0  0  0  0  0  0  0  0  0  0  0
   18.6488   18.7493   23.9630 H   0  0  0  0  0  0  0  0  0  0  0  0
   18.7783   20.3717   22.5340 C   0  0  0  0  0  0  0  0  0  0  0  0
   17.9123   20.0596   21.9339 H   0  0  0  0  0  0  0  0  0  0  0  0
   18.4002   21.0760   23.2878 H   0  0  0  0  0  0  0  0  0  0  0  0
   19.8000   21.0990   21.6341 C   0  0  0  0  0  0  0  0  0  0  0  0
   20.1534   20.4444   20.8268 H   0  0  0  0  0  0  0  0  0  0  0  0
   19.3462   21.9860   21.1734 H   0  0  0  0  0  0  0  0  0  0  0  0
   20.6716   21.4270   22.2154 H   0  0  0  0  0  0  0  0  0  0  0  0
  1  2  1  0  0  0  0
  1  3  2  0  0  0  0
  1  4  1  0  0  0  0
  4  5  1  0  0  0  0
  4  6  2  0  0  0  0
  6  7  1  0  0  0  0
  6  8  1  0  0  0  0
  8  9  1  0  0  0  0
  8 10  1  0  0  0  0
  8 11  1  0  0  0  0
 11 12  1  0  0  0  0
 11 13  1  0  0  0  0
 11 14  1  0  0  0  0
 14 15  1  0  0  0  0
 14 16  1  0  0  0  0
 14 17  1  0  0  0  0
M  END
> <VConfSearch Rank>
76

> <Conf_Id>
45

> <Delta U+W>
0.562

> <U+W>
-52.846

> <U>
10.243

> <W>
-63.089

> <W(PB)>
-65.116

> <W(SA)>
2.026

> <Valence>
2.822

> <Coulomb>
6.637

> <VdW>
0.785

> <VdW6>
-5.216

> <VdW12>
6.001

> <Bond>
0.080

> <Angle>
2.678

> <Pdih>
0.064

> <Idih>
0.000

> <Tether>
0.000

$$$$
VeraChem MOL file


 17 16  0  0  0  0  0  0  0  0999 V2000     
   18.2462   21.9906   21.6439 C   0  0  0  0  0  0  0  0  0  0  0  0
   18.5672   23.1190   21.9621 O   0  5  0  0  0  0  0  0  0  0  0  0
   17.1023   21.6826   21.3661 O   0  0  0  0  0  0  0  0  0  0  0  0
   19.3169   20.9583   21.5980 C   0  0  0  0  0  0  0  0  0  0  0  0
   20.3165   21.2995   21.8575 H   0  0  0  0  0  0  0  0  0  0  0  0
   19.1037   19.6656   21.2626 C   0  0  0  0  0  0  0  0  0  0  0  0
   18.1058   19.3125   21.0033 H   0  0  0  0  0  0  0  0  0  0  0  0
   20.1979   18.6215   21.2205 C   0  0  0  0  0  0  0  0  0  0  0  0
   21.1219   19.0617   20.8214 H   0  0  0  0  0  0  0  0  0  0  0  0
   19.9118   17.8164   20.5303 H   0  0  0  0  0  0  0  0  0  0  0  0
   20.4651   18.0308   22.6201 C   0  0  0  0  0  0  0  0  0  0  0  0
   20.7556   18.8344   23.3109 H   0  0  0  0  0  0  0  0  0  0  0  0
   19.5401   17.5893   23.0163 H   0  0  0  0  0  0  0  0  0  0  0  0
   21.5728   16.9588   22.5841 C   0  0  0  0  0  0  0  0  0  0  0  0
   21.2934   16.1269   21.9242 H   0  0  0  0  0  0  0  0  0  0  0  0
   22.5180   17.3826   22.2203 H   0  0  0  0  0  0  0  0  0  0  0  0
   21.7487   16.5506   23.5879 H   0  0  0  0  0  0  0  0  0  0  0  0
  1  2  1  0  0  0  0
  1  3  2  0  0  0  0
  1  4  1  0  0  0  0
  4  5  1  0  0  0  0
  4  6  2  0  0  0  0
  6  7  1  0  0  0  0
  6  8  1  0  0  0  0
  8  9  1  0  0  0  0
  8 10  1  0  0  0  0
  8 11  1  0  0  0  0
 11 12  1  0  0  0  0
 11 13  1  0  0  0  0
 11 14  1  0  0  0  0
 14 15  1  0  0  0  0
 14 16  1  0  0  0  0
 14 17  1  0  0  0  0
M  END
> <VConfSearch Rank>
77

> <Conf_Id>
36

> <Delta U+W>
0.000

> <U+W>
-53.409

> <U>
9.048

> <W>
-62.457

> <W(PB)>
-64.540

> <W(SA)>
2.084

> <Valence>
2.652

> <Coulomb>
5.578

> <VdW>
0.818

> <VdW6>
-4.534

> <VdW12>
5.352

> <Bond>
0.063

> <Angle>
2.579

> <Pdih>
0.010

> <Idih>
0.000

> <Tether>
0.000

$$$$
VeraChem MOL file


 17 16  0  0  0  0  0  0  0  0999 V2000     
   17.4615   19.0764   19.7087 C   0  0  0  0  0  0  0  0  0  0  0  0
   17.7745   19.8242   18.8013 O   0  5  0  0  0  0  0  0  0  0  0  0
   16.3410   18.6217   19.8325 O   0  0  0  0  0  0  0  0  0  0  0  0
   18.4780   18.6858   20.7228 C   0  0  0  0  0  0  0  0  0  0  0  0
   18.1331   18.0153   21.5066 H   0  0  0  0  0  0  0  0  0  0  0  0
   19.7601   19.1161   20.7094 C   0  0  0  0  0  0  0  0  0  0  0  0
   20.1157   19.7897   19.9300 H   0  0  0  0  0  0  0  0  0  0  0  0
   20.7872   18.7154   21.7457 C   0  0  0  0  0  0  0  0  0  0  0  0
   21.7947   18.7993   21.3165 H   0  0  0  0  0  0  0  0  0  0  0  0
   20.6514   17.6606   22.0208 H   0  0  0  0  0  0  0  0  0  0  0  0
   20.6879   19.5990   23.0061 C   0  0  0  0  0  0  0  0  0  0  0  0
   20.8261   20.6533   22.7287 H   0  0  0  0  0  0  0  0  0  0  0  0
   19.6816   19.5131   23.4391 H   0  0  0  0  0  0  0  0  0  0  0  0
   21.7377   19.2030   24.0637 C   0  0  0  0  0  0  0  0  0  0  0  0
   22.7556   19.3103   23.6664 H   0  0  0  0  0  0  0  0  0  0  0  0
   21.6517   19.8420   24.9522 H   0  0  0  0  0  0  0  0  0  0  0  0
   21.6016   18.1608   24.3813 H   0  0  0  0  0  0  0  0  0  0  0  0
  1  2  1  0  0  0  0
  1  3  2  0  0  0  0
  1  4  1  0  0  0  0
  4  5  1  0  0  0  0
  4  6  2  0  0  0  0
  6  7  1  0  0  0  0
  6  8  1  0  0  0  0
  8  9  1  0  0  0  0
  8 10  1  0  0  0  0
  8 11  1  0  0  0  0
 11 12  1  0  0  0  0
 11 13  1  0  0  0  0
 11 14  1  0  0  0  0
 14 15  1  0  0  0  0
 14 16  1  0  0  0  0
 14 17  1  0  0  0  0
M  END
> <VConfSearch Rank>
78

> <Conf_Id>
1

> <Delta U+W>
0.030

> <U+W>
-53.378

> <U>
9.048

> <W>
-62.426

> <W(PB)>
-64.506

> <W(SA)>
2.080

> <Valence>
2.652

> <Coulomb>
5.578

> <VdW>
0.818

> <VdW6>
-4.535

> <VdW12>
5.352

> <Bond>
0.063

> <Angle>
2.579

> <Pdih>
0.010

> <Idih>
0.000

> <Tether>
0.000

$$$$
VeraChem MOL file


 17 16  0  0  0  0  0  0  0  0999 V2000     
   19.7110   20.7503   24.6277 C   0  0  0  0  0  0  0  0  0  0  0  0
   20.6849   20.3703   25.2502 O   0  5  0  0  0  0  0  0  0  0  0  0
   19.0880   21.7514   24.9238 O   0  0  0  0  0  0  0  0  0  0  0  0
   19.2403   19.9708   23.4509 C   0  0  0  0  0  0  0  0  0  0  0  0
   18.3646   20.3645   22.9402 H   0  0  0  0  0  0  0  0  0  0  0  0
   19.8365   18.8405   23.0083 C   0  0  0  0  0  0  0  0  0  0  0  0
   20.7164   18.4391   23.5105 H   0  0  0  0  0  0  0  0  0  0  0  0
   19.3540   18.0545   21.8073 C   0  0  0  0  0  0  0  0  0  0  0  0
   18.2563   18.0134   21.8108 H   0  0  0  0  0  0  0  0  0  0  0  0
   19.6995   17.0144   21.8790 H   0  0  0  0  0  0  0  0  0  0  0  0
   19.8333   18.6670   20.4729 C   0  0  0  0  0  0  0  0  0  0  0  0
   19.3691   18.1213   19.6399 H   0  0  0  0  0  0  0  0  0  0  0  0
   19.4880   19.7074   20.3977 H   0  0  0  0  0  0  0  0  0  0  0  0
   21.3681   18.6160   20.3163 C   0  0  0  0  0  0  0  0  0  0  0  0
   21.7348   17.5830   20.3756 H   0  0  0  0  0  0  0  0  0  0  0  0
   21.6708   19.0278   19.3448 H   0  0  0  0  0  0  0  0  0  0  0  0
   21.8659   19.2021   21.0998 H   0  0  0  0  0  0  0  0  0  0  0  0
  1  2  1  0  0  0  0
  1  3  2  0  0  0  0
  1  4  1  0  0  0  0
  4  5  1  0  0  0  0
  4  6  2  0  0  0  0
  6  7  1  0  0  0  0
  6  8  1  0  0  0  0
  8  9  1  0  0  0  0
  8 10  1  0  0  0  0
  8 11  1  0  0  0  0
 11 12  1  0  0  0  0
 11 13  1  0  0  0  0
 11 14  1  0  0  0  0
 14 15  1  0  0  0  0
 14 16  1  0  0  0  0
 14 17  1  0  0  0  0
M  END
> <VConfSearch Rank>
79

> <Conf_Id>
3

> <Delta U+W>
0.531

> <U+W>
-52.878

> <U>
10.067

> <W>
-62.945

> <W(PB)>
-64.982

> <W(SA)>
2.037

> <Valence>
2.779

> <Coulomb>
6.474

> <VdW>
0.815

> <VdW6>
-5.088

> <VdW12>
5.902

> <Bond>
0.078

> <Angle>
2.651

> <Pdih>
0.050

> <Idih>
0.000

> <Tether>
0.000

$$$$
VeraChem MOL file


 17 16  0  0  0  0  0  0  0  0999 V2000     
   22.1459   19.6107   24.1144 C   0  0  0  0  0  0  0  0  0  0  0  0
   22.0744   20.1446   25.2042 O   0  5  0  0  0  0  0  0  0  0  0  0
   23.1899   19.5033   23.4989 O   0  0  0  0  0  0  0  0  0  0  0  0
   20.8887   19.0700   23.5302 C   0  0  0  0  0  0  0  0  0  0  0  0
   19.9924   19.1993   24.1323 H   0  0  0  0  0  0  0  0  0  0  0  0
   20.8204   18.4546   22.3276 C   0  0  0  0  0  0  0  0  0  0  0  0
   21.7130   18.3242   21.7162 H   0  0  0  0  0  0  0  0  0  0  0  0
   19.5385   17.9077   21.7343 C   0  0  0  0  0  0  0  0  0  0  0  0
   18.7690   17.7988   22.5106 H   0  0  0  0  0  0  0  0  0  0  0  0
   19.7257   16.8975   21.3463 H   0  0  0  0  0  0  0  0  0  0  0  0
   18.9987   18.7920   20.5889 C   0  0  0  0  0  0  0  0  0  0  0  0
   19.7689   18.9035   19.8131 H   0  0  0  0  0  0  0  0  0  0  0  0
   18.1472   18.2845   20.1151 H   0  0  0  0  0  0  0  0  0  0  0  0
   18.5460   20.1848   21.0768 C   0  0  0  0  0  0  0  0  0  0  0  0
   19.3873   20.7491   21.4997 H   0  0  0  0  0  0  0  0  0  0  0  0
   18.1330   20.7698   20.2449 H   0  0  0  0  0  0  0  0  0  0  0  0
   17.7699   20.0973   21.8482 H   0  0  0  0  0  0  0  0  0  0  0  0
  1  2  1  0  0  0  0
  1  3  2  0  0  0  0
  1  4  1  0  0  0  0
  4  5  1  0  0  0  0
  4  6  2  0  0  0  0
  6  7  1  0  0  0  0
  6  8  1  0  0  0  0
  8  9  1  0  0  0  0
  8 10  1  0  0  0  0
  8 11  1  0  0  0  0
 11 12  1  0  0  0  0
 11 13  1  0  0  0  0
 11 14  1  0  0  0  0
 14 15  1  0  0  0  0
 14 16  1  0  0  0  0
 14 17  1  0  0  0  0
M  END
> <VConfSearch Rank>
80

> <Conf_Id>
45

> <Delta U+W>
0.562

> <U+W>
-52.846

> <U>
10.243

> <W>
-63.089

> <W(PB)>
-65.116

> <W(SA)>
2.026

> <Valence>
2.822

> <Coulomb>
6.637

> <VdW>
0.785

> <VdW6>
-5.216

> <VdW12>
6.001

> <Bond>
0.080

> <Angle>
2.678

> <Pdih>
0.064

> <Idih>
0.000

> <Tether>
0.000

$$$$
VeraChem MOL file


 17 16  0  0  0  0  0  0  0  0999 V2000     
   22.7760   17.5141   20.8829 C   0  0  0  0  0  0  0  0  0  0  0  0
   22.8975   16.3846   20.4503 O   0  5  0  0  0  0  0  0  0  0  0  0
   23.7234   18.1942   21.2295 O   0  0  0  0  0  0  0  0  0  0  0  0
   21.3984   18.0678   20.9821 C   0  0  0  0  0  0  0  0  0  0  0  0
   20.5973   17.4085   20.6560 H   0  0  0  0  0  0  0  0  0  0  0  0
   21.1156   19.3066   21.4451 C   0  0  0  0  0  0  0  0  0  0  0  0
   21.9104   19.9746   21.7766 H   0  0  0  0  0  0  0  0  0  0  0  0
   19.7115   19.8614   21.5448 C   0  0  0  0  0  0  0  0  0  0  0  0
   19.1181   19.5396   20.6781 H   0  0  0  0  0  0  0  0  0  0  0  0
   19.7462   20.9586   21.5096 H   0  0  0  0  0  0  0  0  0  0  0  0
   19.0194   19.4084   22.8466 C   0  0  0  0  0  0  0  0  0  0  0  0
   18.9801   18.3107   22.8814 H   0  0  0  0  0  0  0  0  0  0  0  0
   19.6137   19.7332   23.7120 H   0  0  0  0  0  0  0  0  0  0  0  0
   17.5909   19.9774   22.9604 C   0  0  0  0  0  0  0  0  0  0  0  0
   17.6040   21.0753   22.9601 H   0  0  0  0  0  0  0  0  0  0  0  0
   16.9664   19.6417   22.1221 H   0  0  0  0  0  0  0  0  0  0  0  0
   17.1150   19.6445   23.8920 H   0  0  0  0  0  0  0  0  0  0  0  0
  1  2  1  0  0  0  0
  1  3  2  0  0  0  0
  1  4  1  0  0  0  0
  4  5  1  0  0  0  0
  4  6  2  0  0  0  0
  6  7  1  0  0  0  0
  6  8  1  0  0  0  0
  8  9  1  0  0  0  0
  8 10  1  0  0  0  0
  8 11  1  0  0  0  0
 11 12  1  0  0  0  0
 11 13  1  0  0  0  0
 11 14  1  0  0  0  0
 14 15  1  0  0  0  0
 14 16  1  0  0  0  0
 14 17  1  0  0  0  0
M  END
> <VConfSearch Rank>
81

> <Conf_Id>
36

> <Delta U+W>
0.000

> <U+W>
-53.409

> <U>
9.048

> <W>
-62.457

> <W(PB)>
-64.540

> <W(SA)>
2.084

> <Valence>
2.652

> <Coulomb>
5.578

> <VdW>
0.818

> <VdW6>
-4.534

> <VdW12>
5.352

> <Bond>
0.063

> <Angle>
2.579

> <Pdih>
0.010

> <Idih>
0.000

> <Tether>
0.000

$$$$
VeraChem MOL file


 17 16  0  0  0  0  0  0  0  0999 V2000     
   22.7903   20.9873   21.6254 C   0  0  0  0  0  0  0  0  0  0  0  0
   22.4792   21.9736   20.9844 O   0  5  0  0  0  0  0  0  0  0  0  0
   23.9439   20.7059   21.8854 O   0  0  0  0  0  0  0  0  0  0  0  0
   21.7297   20.0709   22.1250 C   0  0  0  0  0  0  0  0  0  0  0  0
   22.0753   19.2087   22.6907 H   0  0  0  0  0  0  0  0  0  0  0  0
   20.4079   20.2595   21.9098 C   0  0  0  0  0  0  0  0  0  0  0  0
   20.0508   21.1188   21.3425 H   0  0  0  0  0  0  0  0  0  0  0  0
   19.3357   19.3216   22.4199 C   0  0  0  0  0  0  0  0  0  0  0  0
   18.3880   19.8673   22.5222 H   0  0  0  0  0  0  0  0  0  0  0  0
   19.5987   18.9611   23.4237 H   0  0  0  0  0  0  0  0  0  0  0  0
   19.1405   18.1219   21.4704 C   0  0  0  0  0  0  0  0  0  0  0  0
   18.8755   18.4850   20.4676 H   0  0  0  0  0  0  0  0  0  0  0  0
   20.0869   17.5724   21.3701 H   0  0  0  0  0  0  0  0  0  0  0  0
   18.0427   17.1658   21.9785 C   0  0  0  0  0  0  0  0  0  0  0  0
   17.0773   17.6827   22.0579 H   0  0  0  0  0  0  0  0  0  0  0  0
   17.9183   16.3194   21.2907 H   0  0  0  0  0  0  0  0  0  0  0  0
   18.2988   16.7639   22.9676 H   0  0  0  0  0  0  0  0  0  0  0  0
  1  2  1  0  0  0  0
  1  3  2  0  0  0  0
  1  4  1  0  0  0  0
  4  5  1  0  0  0  0
  4  6  2  0  0  0  0
  6  7  1  0  0  0  0
  6  8  1  0  0  0  0
  8  9  1  0  0  0  0
  8 10  1  0  0  0  0
  8 11  1  0  0  0  0
 11 12  1  0  0  0  0
 11 13  1  0  0  0  0
 11 14  1  0  0  0  0
 14 15  1  0  0  0  0
 14 16  1  0  0  0  0
 14 17  1  0  0  0  0
M  END
> <VConfSearch Rank>
82

> <Conf_Id>
1

> <Delta U+W>
0.030

> <U+W>
-53.378

> <U>
9.048

> <W>
-62.426

> <W(PB)>
-64.506

> <W(SA)>
2.080

> <Valence>
2.652

> <Coulomb>
5.578

> <VdW>
0.818

> <VdW6>
-4.535

> <VdW12>
5.352

> <Bond>
0.063

> <Angle>
2.579

> <Pdih>
0.010

> <Idih>
0.000

> <Tether>
0.000

$$$$
VeraChem MOL file


 17 16  0  0  0  0  0  0  0  0999 V2000     
   19.9110   18.3785   19.0527 C   0  0  0  0  0  0  0  0  0  0  0  0
   18.8923   18.9581   18.7262 O   0  5  0  0  0  0  0  0  0  0  0  0
   20.7252   17.9707   18.2473 O   0  0  0  0  0  0  0  0  0  0  0  0
   20.1934   18.1433   20.4946 C   0  0  0  0  0  0  0  0  0  0  0  0
   21.1198   17.6191   20.7176 H   0  0  0  0  0  0  0  0  0  0  0  0
   19.3781   18.5424   21.4971 C   0  0  0  0  0  0  0  0  0  0  0  0
   18.4491   19.0713   21.2851 H   0  0  0  0  0  0  0  0  0  0  0  0
   19.6740   18.3029   22.9627 C   0  0  0  0  0  0  0  0  0  0  0  0
   20.0901   17.2949   23.0945 H   0  0  0  0  0  0  0  0  0  0  0  0
   18.7401   18.3265   23.5404 H   0  0  0  0  0  0  0  0  0  0  0  0
   20.6641   19.3386   23.5392 C   0  0  0  0  0  0  0  0  0  0  0  0
   20.9218   19.0547   24.5689 H   0  0  0  0  0  0  0  0  0  0  0  0
   21.6001   19.3165   22.9640 H   0  0  0  0  0  0  0  0  0  0  0  0
   20.0881   20.7708   23.5400 C   0  0  0  0  0  0  0  0  0  0  0  0
   19.1577   20.8195   24.1205 H   0  0  0  0  0  0  0  0  0  0  0  0
   20.8032   21.4740   23.9861 H   0  0  0  0  0  0  0  0  0  0  0  0
   19.8735   21.1119   22.5188 H   0  0  0  0  0  0  0  0  0  0  0  0
  1  2  1  0  0  0  0
  1  3  2  0  0  0  0
  1  4  1  0  0  0  0
  4  5  1  0  0  0  0
  4  6  2  0  0  0  0
  6  7  1  0  0  0  0
  6  8  1  0  0  0  0
  8  9  1  0  0  0  0
  8 10  1  0  0  0  0
  8 11  1  0  0  0  0
 11 12  1  0  0  0  0
 11 13  1  0  0  0  0
 11 14  1  0  0  0  0
 14 15  1  0  0  0  0
 14 16  1  0  0  0  0
 14 17  1  0  0  0  0
M  END
> <VConfSearch Rank>
83

> <Conf_Id>
3

> <Delta U+W>
0.531

> <U+W>
-52.878

> <U>
10.067

> <W>
-62.945

> <W(PB)>
-64.982

> <W(SA)>
2.037

> <Valence>
2.779

> <Coulomb>
6.474

> <VdW>
0.815

> <VdW6>
-5.088

> <VdW12>
5.902

> <Bond>
0.078

> <Angle>
2.651

> <Pdih>
0.050

> <Idih>
0.000

> <Tether>
0.000

$$$$
VeraChem MOL file


 17 16  0  0  0  0  0  0  0  0999 V2000     
   18.3011   19.1701   19.5657 C   0  0  0  0  0  0  0  0  0  0  0  0
   18.3594   18.4672   18.5756 O   0  5  0  0  0  0  0  0  0  0  0  0
   17.7768   20.2681   19.5661 O   0  0  0  0  0  0  0  0  0  0  0  0
   18.9014   18.6413   20.8203 C   0  0  0  0  0  0  0  0  0  0  0  0
   19.3531   17.6545   20.7502 H   0  0  0  0  0  0  0  0  0  0  0  0
   18.9107   19.3146   21.9934 C   0  0  0  0  0  0  0  0  0  0  0  0
   18.4635   20.3053   22.0714 H   0  0  0  0  0  0  0  0  0  0  0  0
   19.5251   18.7748   23.2683 C   0  0  0  0  0  0  0  0  0  0  0  0
   19.6715   17.6884   23.1968 H   0  0  0  0  0  0  0  0  0  0  0  0
   18.8248   18.9343   24.0991 H   0  0  0  0  0  0  0  0  0  0  0  0
   20.8679   19.4582   23.6070 C   0  0  0  0  0  0  0  0  0  0  0  0
   20.7228   20.5452   23.6761 H   0  0  0  0  0  0  0  0  0  0  0  0
   21.2009   19.1224   24.5987 H   0  0  0  0  0  0  0  0  0  0  0  0
   21.9710   19.1452   22.5735 C   0  0  0  0  0  0  0  0  0  0  0  0
   21.7015   19.5245   21.5793 H   0  0  0  0  0  0  0  0  0  0  0  0
   22.9191   19.6142   22.8667 H   0  0  0  0  0  0  0  0  0  0  0  0
   22.1383   18.0632   22.4935 H   0  0  0  0  0  0  0  0  0  0  0  0
  1  2  1  0  0  0  0
  1  3  2  0  0  0  0
  1  4  1  0  0  0  0
  4  5  1  0  0  0  0
  4  6  2  0  0  0  0
  6  7  1  0  0  0  0
  6  8  1  0  0  0  0
  8  9  1  0  0  0  0
  8 10  1  0  0  0  0
  8 11  1  0  0  0  0
 11 12  1  0  0  0  0
 11 13  1  0  0  0  0
 11 14  1  0  0  0  0
 14 15  1  0  0  0  0
 14 16  1  0  0  0  0
 14 17  1  0  0  0  0
M  END
> <VConfSearch Rank>
84

> <Conf_Id>
45

> <Delta U+W>
0.562

> <U+W>
-52.846

> <U>
10.243

> <W>
-63.089

> <W(PB)>
-65.116

> <W(SA)>
2.026

> <Valence>
2.822

> <Coulomb>
6.637

> <VdW>
0.785

> <VdW6>
-5.216

> <VdW12>
6.001

> <Bond>
0.080

> <Angle>
2.678

> <Pdih>
0.064

> <Idih>
0.000

> <Tether>
0.000

$$$$
VeraChem MOL file


 17 16  0  0  0  0  0  0  0  0999 V2000     
   19.3911   15.8043   22.1054 C   0  0  0  0  0  0  0  0  0  0  0  0
   20.1179   14.9116   22.4958 O   0  5  0  0  0  0  0  0  0  0  0  0
   18.3619   15.5970   21.4904 O   0  0  0  0  0  0  0  0  0  0  0  0
   19.7983   17.2035   22.4061 C   0  0  0  0  0  0  0  0  0  0  0  0
   20.7280   17.3189   22.9586 H   0  0  0  0  0  0  0  0  0  0  0  0
   19.0881   18.2921   22.0324 C   0  0  0  0  0  0  0  0  0  0  0  0
   18.1565   18.1881   21.4765 H   0  0  0  0  0  0  0  0  0  0  0  0
   19.5104   19.7120   22.3404 C   0  0  0  0  0  0  0  0  0  0  0  0
   19.9502   19.7633   23.3457 H   0  0  0  0  0  0  0  0  0  0  0  0
   18.6268   20.3642   22.3521 H   0  0  0  0  0  0  0  0  0  0  0  0
   20.5238   20.2346   21.3016 C   0  0  0  0  0  0  0  0  0  0  0  0
   21.4105   19.5855   21.2916 H   0  0  0  0  0  0  0  0  0  0  0  0
   20.0810   20.1842   20.2972 H   0  0  0  0  0  0  0  0  0  0  0  0
   20.9523   21.6848   21.6032 C   0  0  0  0  0  0  0  0  0  0  0  0
   20.0876   22.3612   21.5878 H   0  0  0  0  0  0  0  0  0  0  0  0
   21.4268   21.7570   22.5906 H   0  0  0  0  0  0  0  0  0  0  0  0
   21.6727   22.0388   20.8543 H   0  0  0  0  0  0  0  0  0  0  0  0
  1  2  1  0  0  0  0
  1  3  2  0  0  0  0
  1  4  1  0  0  0  0
  4  5  1  0  0  0  0
  4  6  2  0  0  0  0
  6  7  1  0  0  0  0
  6  8  1  0  0  0  0
  8  9  1  0  0  0  0
  8 10  1  0  0  0  0
  8 11  1  0  0  0  0
 11 12  1  0  0  0  0
 11 13  1  0  0  0  0
 11 14  1  0  0  0  0
 14 15  1  0  0  0  0
 14 16  1  0  0  0  0
 14 17  1  0  0  0  0
M  END
> <VConfSearch Rank>
85

> <Conf_Id>
36

> <Delta U+W>
0.000

> <U+W>
-53.409

> <U>
9.048

> <W>
-62.457

> <W(PB)>
-64.540

> <W(SA)>
2.084

> <Valence>
2.652

> <Coulomb>
5.578

> <VdW>
0.818

> <VdW6>
-4.534

> <VdW12>
5.352

> <Bond>
0.063

> <Angle>
2.579

> <Pdih>
0.010

> <Idih>
0.000

> <Tether>
0.000

$$$$
VeraChem MOL file


 17 16  0  0  0  0  0  0  0  0999 V2000     
   22.9949   19.6980   20.4554 C   0  0  0  0  0  0  0  0  0  0  0  0
   23.2144   20.8881   20.5821 O   0  5  0  0  0  0  0  0  0  0  0  0
   23.6616   18.9765   19.7395 O   0  0  0  0  0  0  0  0  0  0  0  0
   21.8674   19.0753   21.2005 C   0  0  0  0  0  0  0  0  0  0  0  0
   21.7260   18.0085   21.0427 H   0  0  0  0  0  0  0  0  0  0  0  0
   21.0445   19.7565   22.0299 C   0  0  0  0  0  0  0  0  0  0  0  0
   21.1758   20.8260   22.1934 H   0  0  0  0  0  0  0  0  0  0  0  0
   19.8989   19.1160   22.7824 C   0  0  0  0  0  0  0  0  0  0  0  0
   19.6722   19.7071   23.6800 H   0  0  0  0  0  0  0  0  0  0  0  0
   20.1914   18.1165   23.1321 H   0  0  0  0  0  0  0  0  0  0  0  0
   18.6371   19.0106   21.9016 C   0  0  0  0  0  0  0  0  0  0  0  0
   18.3452   20.0116   21.5549 H   0  0  0  0  0  0  0  0  0  0  0  0
   18.8610   18.4159   21.0051 H   0  0  0  0  0  0  0  0  0  0  0  0
   17.4618   18.3670   22.6645 C   0  0  0  0  0  0  0  0  0  0  0  0
   17.1962   18.9597   23.5497 H   0  0  0  0  0  0  0  0  0  0  0  0
   16.5739   18.3006   22.0223 H   0  0  0  0  0  0  0  0  0  0  0  0
   17.7172   17.3518   22.9956 H   0  0  0  0  0  0  0  0  0  0  0  0
  1  2  1  0  0  0  0
  1  3  2  0  0  0  0
  1  4  1  0  0  0  0
  4  5  1  0  0  0  0
  4  6  2  0  0  0  0
  6  7  1  0  0  0  0
  6  8  1  0  0  0  0
  8  9  1  0  0  0  0
  8 10  1  0  0  0  0
  8 11  1  0  0  0  0
 11 12  1  0  0  0  0
 11 13  1  0  0  0  0
 11 14  1  0  0  0  0
 14 15  1  0  0  0  0
 14 16  1  0  0  0  0
 14 17  1  0  0  0  0
M  END
> <VConfSearch Rank>
86

> <Conf_Id>
1

> <Delta U+W>
0.030

> <U+W>
-53.378

> <U>
9.048

> <W>
-62.426

> <W(PB)>
-64.506

> <W(SA)>
2.080

> <Valence>
2.652

> <Coulomb>
5.578

> <VdW>
0.818

> <VdW6>
-4.535

> <VdW12>
5.352

> <Bond>
0.063

> <Angle>
2.579

> <Pdih>
0.010

> <Idih>
0.000

> <Tether>
0.000

$$$$
VeraChem MOL file


 17 16  0  0  0  0  0  0  0  0999 V2000     
   17.5250   17.3657   21.4789 C   0  0  0  0  0  0  0  0  0  0  0  0
   17.8077   16.3586   22.1005 O   0  5  0  0  0  0  0  0  0  0  0  0
   16.3999   17.6041   21.0853 O   0  0  0  0  0  0  0  0  0  0  0  0
   18.5863   18.3624   21.1717 C   0  0  0  0  0  0  0  0  0  0  0  0
   18.2670   19.2389   20.6127 H   0  0  0  0  0  0  0  0  0  0  0  0
   19.8783   18.2277   21.5480 C   0  0  0  0  0  0  0  0  0  0  0  0
   20.2085   17.3552   22.1113 H   0  0  0  0  0  0  0  0  0  0  0  0
   20.9523   19.2483   21.2351 C   0  0  0  0  0  0  0  0  0  0  0  0
   20.8178   19.6224   20.2111 H   0  0  0  0  0  0  0  0  0  0  0  0
   21.9403   18.7692   21.2586 H   0  0  0  0  0  0  0  0  0  0  0  0
   20.9334   20.4410   22.2163 C   0  0  0  0  0  0  0  0  0  0  0  0
   21.6585   21.1946   21.8796 H   0  0  0  0  0  0  0  0  0  0  0  0
   19.9463   20.9233   22.1940 H   0  0  0  0  0  0  0  0  0  0  0  0
   21.2751   20.0227   23.6623 C   0  0  0  0  0  0  0  0  0  0  0  0
   22.2643   19.5491   23.7107 H   0  0  0  0  0  0  0  0  0  0  0  0
   21.2856   20.8979   24.3249 H   0  0  0  0  0  0  0  0  0  0  0  0
   20.5354   19.3127   24.0546 H   0  0  0  0  0  0  0  0  0  0  0  0
  1  2  1  0  0  0  0
  1  3  2  0  0  0  0
  1  4  1  0  0  0  0
  4  5  1  0  0  0  0
  4  6  2  0  0  0  0
  6  7  1  0  0  0  0
  6  8  1  0  0  0  0
  8  9  1  0  0  0  0
  8 10  1  0  0  0  0
  8 11  1  0  0  0  0
 11 12  1  0  0  0  0
 11 13  1  0  0  0  0
 11 14  1  0  0  0  0
 14 15  1  0  0  0  0
 14 16  1  0  0  0  0
 14 17  1  0  0  0  0
M  END
> <VConfSearch Rank>
87

> <Conf_Id>
3

> <Delta U+W>
0.531

> <U+W>
-52.878

> <U>
10.067

> <W>
-62.945

> <W(PB)>
-64.982

> <W(SA)>
2.037

> <Valence>
2.779

> <Coulomb>
6.474

> <VdW>
0.815

> <VdW6>
-5.088

> <VdW12>
5.902

> <Bond>
0.078

> <Angle>
2.651

> <Pdih>
0.050

> <Idih>
0.000

> <Tether>
0.000

$$$$
VeraChem MOL file


 17 16  0  0  0  0  0  0  0  0999 V2000     
   19.4447   17.0304   19.9427 C   0  0  0  0  0  0  0  0  0  0  0  0
   19.9933   15.9639   19.7439 O   0  5  0  0  0  0  0  0  0  0  0  0
   18.8088   17.6157   19.0862 O   0  0  0  0  0  0  0  0  0  0  0  0
   19.5680   17.6240   21.3015 C   0  0  0  0  0  0  0  0  0  0  0  0
   20.1495   17.0493   22.0187 H   0  0  0  0  0  0  0  0  0  0  0  0
   19.0124   18.8034   21.6619 C   0  0  0  0  0  0  0  0  0  0  0  0
   18.4313   19.3873   20.9485 H   0  0  0  0  0  0  0  0  0  0  0  0
   19.1420   19.4065   23.0453 C   0  0  0  0  0  0  0  0  0  0  0  0
   19.4620   18.6456   23.7701 H   0  0  0  0  0  0  0  0  0  0  0  0
   18.1544   19.7507   23.3802 H   0  0  0  0  0  0  0  0  0  0  0  0
   20.1244   20.5977   23.0757 C   0  0  0  0  0  0  0  0  0  0  0  0
   19.8065   21.3582   22.3490 H   0  0  0  0  0  0  0  0  0  0  0  0
   20.0816   21.0724   24.0657 H   0  0  0  0  0  0  0  0  0  0  0  0
   21.5799   20.1749   22.7833 C   0  0  0  0  0  0  0  0  0  0  0  0
   21.6748   19.7535   21.7741 H   0  0  0  0  0  0  0  0  0  0  0  0
   22.2540   21.0384   22.8519 H   0  0  0  0  0  0  0  0  0  0  0  0
   21.9215   19.4198   23.5032 H   0  0  0  0  0  0  0  0  0  0  0  0
  1  2  1  0  0  0  0
  1  3  2  0  0  0  0
  1  4  1  0  0  0  0
  4  5  1  0  0  0  0
  4  6  2  0  0  0  0
  6  7  1  0  0  0  0
  6  8  1  0  0  0  0
  8  9  1  0  0  0  0
  8 10  1  0  0  0  0
  8 11  1  0  0  0  0
 11 12  1  0  0  0  0
 11 13  1  0  0  0  0
 11 14  1  0  0  0  0
 14 15  1  0  0  0  0
 14 16  1  0  0  0  0
 14 17  1  0  0  0  0
M  END
> <VConfSearch Rank>
88

> <Conf_Id>
45

> <Delta U+W>
0.562

> <U+W>
-52.846

> <U>
10.243

> <W>
-63.089

> <W(PB)>
-65.116

> <W(SA)>
2.026

> <Valence>
2.822

> <Coulomb>
6.637

> <VdW>
0.785

> <VdW6>
-5.216

> <VdW12>
6.001

> <Bond>
0.080

> <Angle>
2.678

> <Pdih>
0.064

> <Idih>
0.000

> <Tether>
0.000

$$$$
VeraChem MOL file


 17 16  0  0  0  0  0  0  0  0999 V2000     
   16.7243   18.3744   21.5391 C   0  0  0  0  0  0  0  0  0  0  0  0
   16.2065   17.4872   20.8891 O   0  5  0  0  0  0  0  0  0  0  0  0
   16.0955   19.3078   22.0014 O   0  0  0  0  0  0  0  0  0  0  0  0
   18.1925   18.2927   21.7670 C   0  0  0  0  0  0  0  0  0  0  0  0
   18.6940   17.4337   21.3269 H   0  0  0  0  0  0  0  0  0  0  0  0
   18.8985   19.2081   22.4688 C   0  0  0  0  0  0  0  0  0  0  0  0
   18.4064   20.0738   22.9120 H   0  0  0  0  0  0  0  0  0  0  0  0
   20.3919   19.1187   22.6941 C   0  0  0  0  0  0  0  0  0  0  0  0
   20.6843   18.0733   22.8629 H   0  0  0  0  0  0  0  0  0  0  0  0
   20.6600   19.6692   23.6060 H   0  0  0  0  0  0  0  0  0  0  0  0
   21.1763   19.6916   21.4960 C   0  0  0  0  0  0  0  0  0  0  0  0
   20.9124   19.1390   20.5835 H   0  0  0  0  0  0  0  0  0  0  0  0
   20.8836   20.7378   21.3304 H   0  0  0  0  0  0  0  0  0  0  0  0
   22.6995   19.6127   21.7219 C   0  0  0  0  0  0  0  0  0  0  0  0
   22.9950   20.1842   22.6115 H   0  0  0  0  0  0  0  0  0  0  0  0
   23.0229   18.5725   21.8594 H   0  0  0  0  0  0  0  0  0  0  0  0
   23.2402   20.0244   20.8597 H   0  0  0  0  0  0  0  0  0  0  0  0
  1  2  1  0  0  0  0
  1  3  2  0  0  0  0
  1  4  1  0  0  0  0
  4  5  1  0  0  0  0
  4  6  2  0  0  0  0
  6  7  1  0  0  0  0
  6  8  1  0  0  0  0
  8  9  1  0  0  0  0
  8 10  1  0  0  0  0
  8 11  1  0  0  0  0
 11 12  1  0  0  0  0
 11 13  1  0  0  0  0
 11 14  1  0  0  0  0
 14 15  1  0  0  0  0
 14 16  1  0  0  0  0
 14 17  1  0  0  0  0
M  END
> <VConfSearch Rank>
89

> <Conf_Id>
36

> <Delta U+W>
0.000

> <U+W>
-53.409

> <U>
9.048

> <W>
-62.457

> <W(PB)>
-64.540

> <W(SA)>
2.084

> <Valence>
2.652

> <Coulomb>
5.578

> <VdW>
0.818

> <VdW6>
-4.534

> <VdW12>
5.352

> <Bond>
0.063

> <Angle>
2.579

> <Pdih>
0.010

> <Idih>
0.000

> <Tether>
0.000

$$$$
VeraChem MOL file


 17 16  0  0  0  0  0  0  0  0999 V2000     
   18.5762   16.1627   21.0640 C   0  0  0  0  0  0  0  0  0  0  0  0
   17.8071   15.8741   21.9616 O   0  5  0  0  0  0  0  0  0  0  0  0
   18.8752   15.3880   20.1763 O   0  0  0  0  0  0  0  0  0  0  0  0
   19.1894   17.5180   21.0292 C   0  0  0  0  0  0  0  0  0  0  0  0
   19.8673   17.7111   20.2008 H   0  0  0  0  0  0  0  0  0  0  0  0
   18.9484   18.4783   21.9505 C   0  0  0  0  0  0  0  0  0  0  0  0
   18.2727   18.2948   22.7857 H   0  0  0  0  0  0  0  0  0  0  0  0
   19.5777   19.8536   21.9087 C   0  0  0  0  0  0  0  0  0  0  0  0
   18.9378   20.5674   22.4449 H   0  0  0  0  0  0  0  0  0  0  0  0
   19.6387   20.2074   20.8705 H   0  0  0  0  0  0  0  0  0  0  0  0
   20.9850   19.8471   22.5399 C   0  0  0  0  0  0  0  0  0  0  0  0
   20.9211   19.4950   23.5789 H   0  0  0  0  0  0  0  0  0  0  0  0
   21.6278   19.1364   22.0020 H   0  0  0  0  0  0  0  0  0  0  0  0
   21.6297   21.2474   22.5096 C   0  0  0  0  0  0  0  0  0  0  0  0
   21.0223   21.9718   23.0681 H   0  0  0  0  0  0  0  0  0  0  0  0
   22.6293   21.2229   22.9626 H   0  0  0  0  0  0  0  0  0  0  0  0
   21.7337   21.6098   21.4784 H   0  0  0  0  0  0  0  0  0  0  0  0
  1  2  1  0  0  0  0
  1  3  2  0  0  0  0
  1  4  1  0  0  0  0
  4  5  1  0  0  0  0
  4  6  2  0  0  0  0
  6  7  1  0  0  0  0
  6  8  1  0  0  0  0
  8  9  1  0  0  0  0
  8 10  1  0  0  0  0
  8 11  1  0  0  0  0
 11 12  1  0  0  0  0
 11 13  1  0  0  0  0
 11 14  1  0  0  0  0
 14 15  1  0  0  0  0
 14 16  1  0  0  0  0
 14 17  1  0  0  0  0
M  END
> <VConfSearch Rank>
90

> <Conf_Id>
1

> <Delta U+W>
0.030

> <U+W>
-53.378

> <U>
9.048

> <W>
-62.426

> <W(PB)>
-64.506

> <W(SA)>
2.080

> <Valence>
2.652

> <Coulomb>
5.578

> <VdW>
0.818

> <VdW6>
-4.535

> <VdW12>
5.352

> <Bond>
0.063

> <Angle>
2.579

> <Pdih>
0.010

> <Idih>
0.000

> <Tether>
0.000

$$$$
VeraChem MOL file


 17 16  0  0  0  0  0  0  0  0999 V2000     
   21.0544   19.7022   24.8868 C   0  0  0  0  0  0  0  0  0  0  0  0
   20.7419   20.8740   24.9853 O   0  5  0  0  0  0  0  0  0  0  0  0
   21.3664   19.0198   25.8433 O   0  0  0  0  0  0  0  0  0  0  0  0
   21.0663   19.0544   23.5473 C   0  0  0  0  0  0  0  0  0  0  0  0
   21.3556   18.0062   23.5294 H   0  0  0  0  0  0  0  0  0  0  0  0
   20.7414   19.6913   22.3993 C   0  0  0  0  0  0  0  0  0  0  0  0
   20.4468   20.7404   22.4061 H   0  0  0  0  0  0  0  0  0  0  0  0
   20.7520   19.0243   21.0399 C   0  0  0  0  0  0  0  0  0  0  0  0
   21.6290   18.3679   20.9585 H   0  0  0  0  0  0  0  0  0  0  0  0
   20.8633   19.7827   20.2533 H   0  0  0  0  0  0  0  0  0  0  0  0
   19.4741   18.1961   20.7817 C   0  0  0  0  0  0  0  0  0  0  0  0
   19.5834   17.6537   19.8325 H   0  0  0  0  0  0  0  0  0  0  0  0
   19.3608   17.4355   21.5665 H   0  0  0  0  0  0  0  0  0  0  0  0
   18.2045   19.0717   20.7190 C   0  0  0  0  0  0  0  0  0  0  0  0
   18.2903   19.8321   19.9319 H   0  0  0  0  0  0  0  0  0  0  0  0
   17.3218   18.4566   20.5012 H   0  0  0  0  0  0  0  0  0  0  0  0
   18.0296   19.5847   21.6738 H   0  0  0  0  0  0  0  0  0  0  0  0
  1  2  1  0  0  0  0
  1  3  2  0  0  0  0
  1  4  1  0  0  0  0
  4  5  1  0  0  0  0
  4  6  2  0  0  0  0
  6  7  1  0  0  0  0
  6  8  1  0  0  0  0
  8  9  1  0  0  0  0
  8 10  1  0  0  0  0
  8 11  1  0  0  0  0
 11 12  1  0  0  0  0
 11 13  1  0  0  0  0
 11 14  1  0  0  0  0
 14 15  1  0  0  0  0
 14 16  1  0  0  0  0
 14 17  1  0  0  0  0
M  END
> <VConfSearch Rank>
91

> <Conf_Id>
3

> <Delta U+W>
0.531

> <U+W>
-52.878

> <U>
10.067

> <W>
-62.945

> <W(PB)>
-64.982

> <W(SA)>
2.037

> <Valence>
2.779

> <Coulomb>
6.474

> <VdW>
0.815

> <VdW6>
-5.088

> <VdW12>
5.902

> <Bond>
0.078

> <Angle>
2.651

> <Pdih>
0.050

> <Idih>
0.000

> <Tether>
0.000

$$$$
VeraChem MOL file


 17 16  0  0  0  0  0  0  0  0999 V2000     
   18.9347   21.7104   23.1790 C   0  0  0  0  0  0  0  0  0  0  0  0
   17.8005   22.0252   23.4825 O   0  5  0  0  0  0  0  0  0  0  0  0
   19.8035   22.5263   22.9342 O   0  0  0  0  0  0  0  0  0  0  0  0
   19.2507   20.2578   23.1139 C   0  0  0  0  0  0  0  0  0  0  0  0
   18.4293   19.5833   23.3442 H   0  0  0  0  0  0  0  0  0  0  0  0
   20.4676   19.7652   22.7882 C   0  0  0  0  0  0  0  0  0  0  0  0
   21.2952   20.4338   22.5525 H   0  0  0  0  0  0  0  0  0  0  0  0
   20.7855   18.2858   22.7201 C   0  0  0  0  0  0  0  0  0  0  0  0
   20.0228   17.7017   23.2528 H   0  0  0  0  0  0  0  0  0  0  0  0
   21.7333   18.0985   23.2423 H   0  0  0  0  0  0  0  0  0  0  0  0
   20.9060   17.7785   21.2664 C   0  0  0  0  0  0  0  0  0  0  0  0
   21.6669   18.3640   20.7319 H   0  0  0  0  0  0  0  0  0  0  0  0
   21.2609   16.7387   21.2778 H   0  0  0  0  0  0  0  0  0  0  0  0
   19.5668   17.8442   20.5014 C   0  0  0  0  0  0  0  0  0  0  0  0
   19.2114   18.8791   20.4131 H   0  0  0  0  0  0  0  0  0  0  0  0
   19.6812   17.4402   19.4873 H   0  0  0  0  0  0  0  0  0  0  0  0
   18.7926   17.2589   21.0144 H   0  0  0  0  0  0  0  0  0  0  0  0
  1  2  1  0  0  0  0
  1  3  2  0  0  0  0
  1  4  1  0  0  0  0
  4  5  1  0  0  0  0
  4  6  2  0  0  0  0
  6  7  1  0  0  0  0
  6  8  1  0  0  0  0
  8  9  1  0  0  0  0
  8 10  1  0  0  0  0
  8 11  1  0  0  0  0
 11 12  1  0  0  0  0
 11 13  1  0  0  0  0
 11 14  1  0  0  0  0
 14 15  1  0  0  0  0
 14 16  1  0  0  0  0
 14 17  1  0  0  0  0
M  END
> <VConfSearch Rank>
92

> <Conf_Id>
45

> <Delta U+W>
0.562

> <U+W>
-52.846

> <U>
10.243

> <W>
-63.089

> <W(PB)>
-65.116

> <W(SA)>
2.026

> <Valence>
2.822

> <Coulomb>
6.637

> <VdW>
0.785

> <VdW6>
-5.216

> <VdW12>
6.001

> <Bond>
0.080

> <Angle>
2.678

> <Pdih>
0.064

> <Idih>
0.000

> <Tether>
0.000

$$$$
VeraChem MOL file


 17 16  0  0  0  0  0  0  0  0999 V2000     
   18.2089   16.2556   21.8586 C   0  0  0  0  0  0  0  0  0  0  0  0
   17.6605   15.6732   22.7738 O   0  5  0  0  0  0  0  0  0  0  0  0
   18.3872   15.7502   20.7663 O   0  0  0  0  0  0  0  0  0  0  0  0
   18.6725   17.6473   22.1088 C   0  0  0  0  0  0  0  0  0  0  0  0
   18.4822   18.0389   23.1055 H   0  0  0  0  0  0  0  0  0  0  0  0
   19.2973   18.4113   21.1843 C   0  0  0  0  0  0  0  0  0  0  0  0
   19.4951   18.0281   20.1834 H   0  0  0  0  0  0  0  0  0  0  0  0
   19.7675   19.8251   21.4476 C   0  0  0  0  0  0  0  0  0  0  0  0
   19.0359   20.3538   22.0737 H   0  0  0  0  0  0  0  0  0  0  0  0
   19.8238   20.3766   20.4994 H   0  0  0  0  0  0  0  0  0  0  0  0
   21.1479   19.8392   22.1356 C   0  0  0  0  0  0  0  0  0  0  0  0
   21.0923   19.2913   23.0866 H   0  0  0  0  0  0  0  0  0  0  0  0
   21.8784   19.3117   21.5066 H   0  0  0  0  0  0  0  0  0  0  0  0
   21.6387   21.2770   22.3990 C   0  0  0  0  0  0  0  0  0  0  0  0
   21.7338   21.8380   21.4600 H   0  0  0  0  0  0  0  0  0  0  0  0
   20.9404   21.8170   23.0519 H   0  0  0  0  0  0  0  0  0  0  0  0
   22.6212   21.2667   22.8885 H   0  0  0  0  0  0  0  0  0  0  0  0
  1  2  1  0  0  0  0
  1  3  2  0  0  0  0
  1  4  1  0  0  0  0
  4  5  1  0  0  0  0
  4  6  2  0  0  0  0
  6  7  1  0  0  0  0
  6  8  1  0  0  0  0
  8  9  1  0  0  0  0
  8 10  1  0  0  0  0
  8 11  1  0  0  0  0
 11 12  1  0  0  0  0
 11 13  1  0  0  0  0
 11 14  1  0  0  0  0
 14 15  1  0  0  0  0
 14 16  1  0  0  0  0
 14 17  1  0  0  0  0
M  END
> <VConfSearch Rank>
93

> <Conf_Id>
36

> <Delta U+W>
0.000

> <U+W>
-53.409

> <U>
9.048

> <W>
-62.457

> <W(PB)>
-64.540

> <W(SA)>
2.084

> <Valence>
2.652

> <Coulomb>
5.578

> <VdW>
0.818

> <VdW6>
-4.534

> <VdW12>
5.352

> <Bond>
0.063

> <Angle>
2.579

> <Pdih>
0.010

> <Idih>
0.000

> <Tether>
0.000

$$$$
VeraChem MOL file


 17 16  0  0  0  0  0  0  0  0999 V2000     
   17.0782   18.8035   20.2783 C   0  0  0  0  0  0  0  0  0  0  0  0
   16.7193   19.9312   19.9957 O   0  5  0  0  0  0  0  0  0  0  0  0
   16.3584   17.8316   20.1562 O   0  0  0  0  0  0  0  0  0  0  0  0
   18.4548   18.5787   20.7968 C   0  0  0  0  0  0  0  0  0  0  0  0
   18.7117   17.5479   21.0298 H   0  0  0  0  0  0  0  0  0  0  0  0
   19.3603   19.5657   20.9838 C   0  0  0  0  0  0  0  0  0  0  0  0
   19.1126   20.6022   20.7557 H   0  0  0  0  0  0  0  0  0  0  0  0
   20.7577   19.3287   21.5133 C   0  0  0  0  0  0  0  0  0  0  0  0
   21.4213   20.1354   21.1738 H   0  0  0  0  0  0  0  0  0  0  0  0
   21.1630   18.3955   21.0992 H   0  0  0  0  0  0  0  0  0  0  0  0
   20.7711   19.2635   23.0543 C   0  0  0  0  0  0  0  0  0  0  0  0
   20.3673   20.1988   23.4662 H   0  0  0  0  0  0  0  0  0  0  0  0
   20.1107   18.4542   23.3955 H   0  0  0  0  0  0  0  0  0  0  0  0
   22.1935   19.0314   23.6024 C   0  0  0  0  0  0  0  0  0  0  0  0
   22.8679   19.8440   23.3019 H   0  0  0  0  0  0  0  0  0  0  0  0
   22.1831   18.9879   24.6992 H   0  0  0  0  0  0  0  0  0  0  0  0
   22.6087   18.0857   23.2297 H   0  0  0  0  0  0  0  0  0  0  0  0
  1  2  1  0  0  0  0
  1  3  2  0  0  0  0
  1  4  1  0  0  0  0
  4  5  1  0  0  0  0
  4  6  2  0  0  0  0
  6  7  1  0  0  0  0
  6  8  1  0  0  0  0
  8  9  1  0  0  0  0
  8 10  1  0  0  0  0
  8 11  1  0  0  0  0
 11 12  1  0  0  0  0
 11 13  1  0  0  0  0
 11 14  1  0  0  0  0
 14 15  1  0  0  0  0
 14 16  1  0  0  0  0
 14 17  1  0  0  0  0
M  END
> <VConfSearch Rank>
94

> <Conf_Id>
1

> <Delta U+W>
0.030

> <U+W>
-53.378

> <U>
9.048

> <W>
-62.426

> <W(PB)>
-64.506

> <W(SA)>
2.080

> <Valence>
2.652

> <Coulomb>
5.578

> <VdW>
0.818

> <VdW6>
-4.535

> <VdW12>
5.352

> <Bond>
0.063

> <Angle>
2.579

> <Pdih>
0.010

> <Idih>
0.000

> <Tether>
0.000

$$$$
VeraChem MOL file


 17 16  0  0  0  0  0  0  0  0999 V2000     
   22.7333   20.4102   22.6593 C   0  0  0  0  0  0  0  0  0  0  0  0
   22.5697   21.4971   22.1374 O   0  5  0  0  0  0  0  0  0  0  0  0
   23.6283   20.1864   23.4510 O   0  0  0  0  0  0  0  0  0  0  0  0
   21.8128   19.2892   22.3276 C   0  0  0  0  0  0  0  0  0  0  0  0
   22.0151   18.3449   22.8278 H   0  0  0  0  0  0  0  0  0  0  0  0
   20.7754   19.3955   21.4665 C   0  0  0  0  0  0  0  0  0  0  0  0
   20.5616   20.3377   20.9625 H   0  0  0  0  0  0  0  0  0  0  0  0
   19.8403   18.2510   21.1368 C   0  0  0  0  0  0  0  0  0  0  0  0
   20.4170   17.3218   21.0350 H   0  0  0  0  0  0  0  0  0  0  0  0
   19.3666   18.4257   20.1614 H   0  0  0  0  0  0  0  0  0  0  0  0
   18.7496   18.0547   22.2126 C   0  0  0  0  0  0  0  0  0  0  0  0
   18.1702   17.1516   21.9761 H   0  0  0  0  0  0  0  0  0  0  0  0
   19.2206   17.8784   23.1896 H   0  0  0  0  0  0  0  0  0  0  0  0
   17.7894   19.2594   22.3082 C   0  0  0  0  0  0  0  0  0  0  0  0
   17.2971   19.4466   21.3450 H   0  0  0  0  0  0  0  0  0  0  0  0
   17.0089   19.0724   23.0570 H   0  0  0  0  0  0  0  0  0  0  0  0
   18.3258   20.1711   22.6020 H   0  0  0  0  0  0  0  0  0  0  0  0
  1  2  1  0  0  0  0
  1  3  2  0  0  0  0
  1  4  1  0  0  0  0
  4  5  1  0  0  0  0
  4  6  2  0  0  0  0
  6  7  1  0  0  0  0
  6  8  1  0  0  0  0
  8  9  1  0  0  0  0
  8 10  1  0  0  0  0
  8 11  1  0  0  0  0
 11 12  1  0  0  0  0
 11 13  1  0  0  0  0
 11 14  1  0  0  0  0
 14 15  1  0  0  0  0
 14 16  1  0  0  0  0
 14 17  1  0  0  0  0
M  END
> <VConfSearch Rank>
95

> <Conf_Id>
3

> <Delta U+W>
0.531

> <U+W>
-52.878

> <U>
10.067

> <W>
-62.945

> <W(PB)>
-64.982

> <W(SA)>
2.037

> <Valence>
2.779

> <Coulomb>
6.474

> <VdW>
0.815

> <VdW6>
-5.088

> <VdW12>
5.902

> <Bond>
0.078

> <Angle>
2.651

> <Pdih>
0.050

> <Idih>
0.000

> <Tether>
0.000

$$$$
VeraChem MOL file


 17 16  0  0  0  0  0  0  0  0999 V2000     
   19.5610   20.4633   19.4147 C   0  0  0  0  0  0  0  0  0  0  0  0
   19.4766   19.9808   18.3021 O   0  5  0  0  0  0  0  0  0  0  0  0
   19.8477   21.6297   19.6087 O   0  0  0  0  0  0  0  0  0  0  0  0
   19.2943   19.5690   20.5737 C   0  0  0  0  0  0  0  0  0  0  0  0
   19.0436   18.5392   20.3298 H   0  0  0  0  0  0  0  0  0  0  0  0
   19.3542   19.9697   21.8642 C   0  0  0  0  0  0  0  0  0  0  0  0
   19.6082   20.9987   22.1175 H   0  0  0  0  0  0  0  0  0  0  0  0
   19.0848   19.0562   23.0420 C   0  0  0  0  0  0  0  0  0  0  0  0
   18.5506   18.1532   22.7165 H   0  0  0  0  0  0  0  0  0  0  0  0
   18.4169   19.5684   23.7474 H   0  0  0  0  0  0  0  0  0  0  0  0
   20.3803   18.6547   23.7807 C   0  0  0  0  0  0  0  0  0  0  0  0
   20.9167   19.5575   24.1044 H   0  0  0  0  0  0  0  0  0  0  0  0
   20.1163   18.1025   24.6932 H   0  0  0  0  0  0  0  0  0  0  0  0
   21.3109   17.7791   22.9146 C   0  0  0  0  0  0  0  0  0  0  0  0
   21.6487   18.3222   22.0225 H   0  0  0  0  0  0  0  0  0  0  0  0
   22.2008   17.4811   23.4839 H   0  0  0  0  0  0  0  0  0  0  0  0
   20.7972   16.8664   22.5858 H   0  0  0  0  0  0  0  0  0  0  0  0
  1  2  1  0  0  0  0
  1  3  2  0  0  0  0
  1  4  1  0  0  0  0
  4  5  1  0  0  0  0
  4  6  2  0  0  0  0
  6  7  1  0  0  0  0
  6  8  1  0  0  0  0
  8  9  1  0  0  0  0
  8 10  1  0  0  0  0
  8 11  1  0  0  0  0
 11 12  1  0  0  0  0
 11 13  1  0  0  0  0
 11 14  1  0  0  0  0
 14 15  1  0  0  0  0
 14 16  1  0  0  0  0
 14 17  1  0  0  0  0
M  END
> <VConfSearch Rank>
96

> <Conf_Id>
45

> <Delta U+W>
0.562

> <U+W>
-52.846

> <U>
10.243

> <W>
-63.089

> <W(PB)>
-65.116

> <W(SA)>
2.026

> <Valence>
2.822

> <Coulomb>
6.637

> <VdW>
0.785

> <VdW6>
-5.216

> <VdW12>
6.001

> <Bond>
0.080

> <Angle>
2.678

> <Pdih>
0.064

> <Idih>
0.000

> <Tether>
0.000

$$$$
VeraChem MOL file


 17 16  0  0  0  0  0  0  0  0999 V2000     
   20.7317   15.8447   22.2598 C   0  0  0  0  0  0  0  0  0  0  0  0
   21.8133   15.2914   22.2186 O   0  5  0  0  0  0  0  0  0  0  0  0
   19.6776   15.2388   22.2135 O   0  0  0  0  0  0  0  0  0  0  0  0
   20.7222   17.3283   22.3731 C   0  0  0  0  0  0  0  0  0  0  0  0
   21.6977   17.8078   22.4098 H   0  0  0  0  0  0  0  0  0  0  0  0
   19.5945   18.0729   22.4276 C   0  0  0  0  0  0  0  0  0  0  0  0
   18.6118   17.6030   22.3893 H   0  0  0  0  0  0  0  0  0  0  0  0
   19.5936   19.5817   22.5408 C   0  0  0  0  0  0  0  0  0  0  0  0
   20.4023   19.9087   23.2084 H   0  0  0  0  0  0  0  0  0  0  0  0
   18.6539   19.9154   23.0013 H   0  0  0  0  0  0  0  0  0  0  0  0
   19.7569   20.2488   21.1597 C   0  0  0  0  0  0  0  0  0  0  0  0
   20.6987   19.9192   20.6993 H   0  0  0  0  0  0  0  0  0  0  0  0
   18.9458   19.9218   20.4944 H   0  0  0  0  0  0  0  0  0  0  0  0
   19.7475   21.7871   21.2653 C   0  0  0  0  0  0  0  0  0  0  0  0
   18.8025   22.1458   21.6938 H   0  0  0  0  0  0  0  0  0  0  0  0
   20.5691   22.1422   21.9011 H   0  0  0  0  0  0  0  0  0  0  0  0
   19.8648   22.2435   20.2738 H   0  0  0  0  0  0  0  0  0  0  0  0
  1  2  1  0  0  0  0
  1  3  2  0  0  0  0
  1  4  1  0  0  0  0
  4  5  1  0  0  0  0
  4  6  2  0  0  0  0
  6  7  1  0  0  0  0
  6  8  1  0  0  0  0
  8  9  1  0  0  0  0
  8 10  1  0  0  0  0
  8 11  1  0  0  0  0
 11 12  1  0  0  0  0
 11 13  1  0  0  0  0
 11 14  1  0  0  0  0
 14 15  1  0  0  0  0
 14 16  1  0  0  0  0
 14 17  1  0  0  0  0
M  END
> <VConfSearch Rank>
97

> <Conf_Id>
36

> <Delta U+W>
0.000

> <U+W>
-53.409

> <U>
9.048

> <W>
-62.457

> <W(PB)>
-64.540

> <W(SA)>
2.084

> <Valence>
2.652

> <Coulomb>
5.578

> <VdW>
0.818

> <VdW6>
-4.534

> <VdW12>
5.352

> <Bond>
0.063

> <Angle>
2.579

> <Pdih>
0.010

> <Idih>
0.000

> <Tether>
0.000

$$$$
VeraChem MOL file


 17 16  0  0  0  0  0  0  0  0999 V2000     
   19.0425   18.9629   18.6862 C   0  0  0  0  0  0  0  0  0  0  0  0
   19.8954   19.5395   18.0377 O   0  5  0  0  0  0  0  0  0  0  0  0
   17.9723   18.6264   18.2179 O   0  0  0  0  0  0  0  0  0  0  0  0
   19.2980   18.6434   20.1168 C   0  0  0  0  0  0  0  0  0  0  0  0
   18.4952   18.1274   20.6386 H   0  0  0  0  0  0  0  0  0  0  0  0
   20.4412   18.9586   20.7670 C   0  0  0  0  0  0  0  0  0  0  0  0
   21.2510   19.4775   20.2545 H   0  0  0  0  0  0  0  0  0  0  0  0
   20.6923   18.6317   22.2228 C   0  0  0  0  0  0  0  0  0  0  0  0
   21.7736   18.5669   22.4040 H   0  0  0  0  0  0  0  0  0  0  0  0
   20.2754   17.6442   22.4633 H   0  0  0  0  0  0  0  0  0  0  0  0
   20.0762   19.6972   23.1524 C   0  0  0  0  0  0  0  0  0  0  0  0
   20.4963   20.6836   22.9115 H   0  0  0  0  0  0  0  0  0  0  0  0
   18.9935   19.7604   22.9753 H   0  0  0  0  0  0  0  0  0  0  0  0
   20.3358   19.3760   24.6380 C   0  0  0  0  0  0  0  0  0  0  0  0
   21.4124   19.3382   24.8496 H   0  0  0  0  0  0  0  0  0  0  0  0
   19.8905   20.1444   25.2833 H   0  0  0  0  0  0  0  0  0  0  0  0
   19.8980   18.4074   24.9128 H   0  0  0  0  0  0  0  0  0  0  0  0
  1  2  1  0  0  0  0
  1  3  2  0  0  0  0
  1  4  1  0  0  0  0
  4  5  1  0  0  0  0
  4  6  2  0  0  0  0
  6  7  1  0  0  0  0
  6  8  1  0  0  0  0
  8  9  1  0  0  0  0
  8 10  1  0  0  0  0
  8 11  1  0  0  0  0
 11 12  1  0  0  0  0
 11 13  1  0  0  0  0
 11 14  1  0  0  0  0
 14 15  1  0  0  0  0
 14 16  1  0  0  0  0
 14 17  1  0  0  0  0
M  END
> <VConfSearch Rank>
98

> <Conf_Id>
1

> <Delta U+W>
0.030

> <U+W>
-53.378

> <U>
9.048

> <W>
-62.426

> <W(PB)>
-64.506

> <W(SA)>
2.080

> <Valence>
2.652

> <Coulomb>
5.578

> <VdW>
0.818

> <VdW6>
-4.535

> <VdW12>
5.352

> <Bond>
0.063

> <Angle>
2.579

> <Pdih>
0.010

> <Idih>
0.000

> <Tether>
0.000

$$$$
VeraChem MOL file


 17 16  0  0  0  0  0  0  0  0999 V2000     
   21.2890   16.3654   22.7353 C   0  0  0  0  0  0  0  0  0  0  0  0
   22.4492   16.5860   22.4424 O   0  5  0  0  0  0  0  0  0  0  0  0
   20.9488   15.4155   23.4134 O   0  0  0  0  0  0  0  0  0  0  0  0
   20.2214   17.2819   22.2513 C   0  0  0  0  0  0  0  0  0  0  0  0
   19.2065   17.0271   22.5480 H   0  0  0  0  0  0  0  0  0  0  0  0
   20.4547   18.3759   21.4913 C   0  0  0  0  0  0  0  0  0  0  0  0
   21.4679   18.6424   21.1912 H   0  0  0  0  0  0  0  0  0  0  0  0
   19.3632   19.3064   21.0057 C   0  0  0  0  0  0  0  0  0  0  0  0
   18.4899   18.7181   20.6927 H   0  0  0  0  0  0  0  0  0  0  0  0
   19.7041   19.8471   20.1125 H   0  0  0  0  0  0  0  0  0  0  0  0
   18.9296   20.3192   22.0882 C   0  0  0  0  0  0  0  0  0  0  0  0
   18.0692   20.8937   21.7186 H   0  0  0  0  0  0  0  0  0  0  0  0
   18.5867   19.7811   22.9828 H   0  0  0  0  0  0  0  0  0  0  0  0
   20.0616   21.2963   22.4712 C   0  0  0  0  0  0  0  0  0  0  0  0
   20.4118   21.8550   21.5935 H   0  0  0  0  0  0  0  0  0  0  0  0
   19.7097   22.0215   23.2163 H   0  0  0  0  0  0  0  0  0  0  0  0
   20.9182   20.7611   22.9012 H   0  0  0  0  0  0  0  0  0  0  0  0
  1  2  1  0  0  0  0
  1  3  2  0  0  0  0
  1  4  1  0  0  0  0
  4  5  1  0  0  0  0
  4  6  2  0  0  0  0
  6  7  1  0  0  0  0
  6  8  1  0  0  0  0
  8  9  1  0  0  0  0
  8 10  1  0  0  0  0
  8 11  1  0  0  0  0
 11 12  1  0  0  0  0
 11 13  1  0  0  0  0
 11 14  1  0  0  0  0
 14 15  1  0  0  0  0
 14 16  1  0  0  0  0
 14 17  1  0  0  0  0
M  END
> <VConfSearch Rank>
99

> <Conf_Id>
3

> <Delta U+W>
0.531

> <U+W>
-52.878

> <U>
10.067

> <W>
-62.945

> <W(PB)>
-64.982

> <W(SA)>
2.037

> <Valence>
2.779

> <Coulomb>
6.474

> <VdW>
0.815

> <VdW6>
-5.088

> <VdW12>
5.902

> <Bond>
0.078

> <Angle>
2.651

> <Pdih>
0.050

> <Idih>
0.000

> <Tether>
0.000

$$$$
VeraChem MOL file


 17 16  0  0  0  0  0  0  0  0999 V2000     
   21.8692   21.3062   22.8943 C   0  0  0  0  0  0  0  0  0  0  0  0
   22.2962   22.2406   22.2445 O   0  5  0  0  0  0  0  0  0  0  0  0
   22.4170   20.8964   23.9004 O   0  0  0  0  0  0  0  0  0  0  0  0
   20.6189   20.6536   22.4200 C   0  0  0  0  0  0  0  0  0  0  0  0
   20.1812   21.0692   21.5152 H   0  0  0  0  0  0  0  0  0  0  0  0
   20.0336   19.6047   23.0419 C   0  0  0  0  0  0  0  0  0  0  0  0
   20.4674   19.1799   23.9468 H   0  0  0  0  0  0  0  0  0  0  0  0
   18.7622   18.9407   22.5550 C   0  0  0  0  0  0  0  0  0  0  0  0
   18.2324   19.5927   21.8472 H   0  0  0  0  0  0  0  0  0  0  0  0
   18.0832   18.7991   23.4064 H   0  0  0  0  0  0  0  0  0  0  0  0
   19.0318   17.5702   21.8962 C   0  0  0  0  0  0  0  0  0  0  0  0
   19.5641   16.9183   22.6027 H   0  0  0  0  0  0  0  0  0  0  0  0
   18.0719   17.0812   21.6802 H   0  0  0  0  0  0  0  0  0  0  0  0
   19.8412   17.6894   20.5872 C   0  0  0  0  0  0  0  0  0  0  0  0
   20.8354   18.1160   20.7736 H   0  0  0  0  0  0  0  0  0  0  0  0
   19.9797   16.7022   20.1276 H   0  0  0  0  0  0  0  0  0  0  0  0
   19.3235   18.3313   19.8626 H   0  0  0  0  0  0  0  0  0  0  0  0
  1  2  1  0  0  0  0
  1  3  2  0  0  0  0
  1  4  1  0  0  0  0
  4  5  1  0  0  0  0
  4  6  2  0  0  0  0
  6  7  1  0  0  0  0
  6  8  1  0  0  0  0
  8  9  1  0  0  0  0
  8 10  1  0  0  0  0
  8 11  1  0  0  0  0
 11 12  1  0  0  0  0
 11 13  1  0  0  0  0
 11 14  1  0  0  0  0
 14 15  1  0  0  0  0
 14 16  1  0  0  0  0
 14 17  1  0  0  0  0
M  END
> <VConfSearch Rank>
100

> <Conf_Id>
45

> <Delta U+W>
0.562

> <U+W>
-52.846

> <U>
10.243

> <W>
-63.089

> <W(PB)>
-65.116

> <W(SA)>
2.026

> <Valence>
2.822

> <Coulomb>
6.637

> <VdW>
0.785

> <VdW6>
-5.216

> <VdW12>
6.001

> <Bond>
0.080

> <Angle>
2.678

> <Pdih>
0.064

> <Idih>
0.000

> <Tether>
0.000

$$$$
VeraChem MOL file


 17 16  0  0  0  0  0  0  0  0999 V2000     
   17.0795   18.5583   20.3085 C   0  0  0  0  0  0  0  0  0  0  0  0
   16.1548   19.3206   20.1045 O   0  5  0  0  0  0  0  0  0  0  0  0
   16.9932   17.3559   20.1437 O   0  0  0  0  0  0  0  0  0  0  0  0
   18.3635   19.1454   20.7785 C   0  0  0  0  0  0  0  0  0  0  0  0
   18.3733   20.2255   20.9053 H   0  0  0  0  0  0  0  0  0  0  0  0
   19.4719   18.4179   21.0455 C   0  0  0  0  0  0  0  0  0  0  0  0
   19.4725   17.3348   20.9242 H   0  0  0  0  0  0  0  0  0  0  0  0
   20.7733   19.0225   21.5252 C   0  0  0  0  0  0  0  0  0  0  0  0
   20.9534   19.9789   21.0156 H   0  0  0  0  0  0  0  0  0  0  0  0
   21.6078   18.3619   21.2540 H   0  0  0  0  0  0  0  0  0  0  0  0
   20.7625   19.2402   23.0521 C   0  0  0  0  0  0  0  0  0  0  0  0
   19.9305   19.9044   23.3247 H   0  0  0  0  0  0  0  0  0  0  0  0
   20.5842   18.2820   23.5596 H   0  0  0  0  0  0  0  0  0  0  0  0
   22.0892   19.8477   23.5505 C   0  0  0  0  0  0  0  0  0  0  0  0
   22.9353   19.1874   23.3187 H   0  0  0  0  0  0  0  0  0  0  0  0
   22.2760   20.8223   23.0808 H   0  0  0  0  0  0  0  0  0  0  0  0
   22.0627   19.9952   24.6380 H   0  0  0  0  0  0  0  0  0  0  0  0
  1  2  1  0  0  0  0
  1  3  2  0  0  0  0
  1  4  1  0  0  0  0
  4  5  1  0  0  0  0
  4  6  2  0  0  0  0
  6  7  1  0  0  0  0
  6  8  1  0  0  0  0
  8  9  1  0  0  0  0
  8 10  1  0  0  0  0
  8 11  1  0  0  0  0
 11 12  1  0  0  0  0
 11 13  1  0  0  0  0
 11 14  1  0  0  0  0
 14 15  1  0  0  0  0
 14 16  1  0  0  0  0
 14 17  1  0  0  0  0
M  END
> <VConfSearch Rank>
101

> <Conf_Id>
36

> <Delta U+W>
0.000

> <U+W>
-53.409

> <U>
9.048

> <W>
-62.457

> <W(PB)>
-64.540

> <W(SA)>
2.084

> <Valence>
2.652

> <Coulomb>
5.578

> <VdW>
0.818

> <VdW6>
-4.534

> <VdW12>
5.352

> <Bond>
0.063

> <Angle>
2.579

> <Pdih>
0.010

> <Idih>
0.000

> <Tether>
0.000

$$$$
VeraChem MOL file


 17 16  0  0  0  0  0  0  0  0999 V2000     
   17.0795   17.7984   22.9571 C   0  0  0  0  0  0  0  0  0  0  0  0
   17.3245   17.1068   23.9277 O   0  5  0  0  0  0  0  0  0  0  0  0
   15.9985   17.7962   22.4011 O   0  0  0  0  0  0  0  0  0  0  0  0
   18.1326   18.6956   22.4093 C   0  0  0  0  0  0  0  0  0  0  0  0
   17.8484   19.2864   21.5415 H   0  0  0  0  0  0  0  0  0  0  0  0
   19.3783   18.7987   22.9257 C   0  0  0  0  0  0  0  0  0  0  0  0
   19.6743   18.2097   23.7936 H   0  0  0  0  0  0  0  0  0  0  0  0
   20.4442   19.7123   22.3613 C   0  0  0  0  0  0  0  0  0  0  0  0
   21.1676   19.9639   23.1486 H   0  0  0  0  0  0  0  0  0  0  0  0
   19.9932   20.6600   22.0368 H   0  0  0  0  0  0  0  0  0  0  0  0
   21.1794   19.0531   21.1764 C   0  0  0  0  0  0  0  0  0  0  0  0
   21.6315   18.1066   21.5039 H   0  0  0  0  0  0  0  0  0  0  0  0
   20.4577   18.8045   20.3860 H   0  0  0  0  0  0  0  0  0  0  0  0
   22.2739   19.9745   20.6013 C   0  0  0  0  0  0  0  0  0  0  0  0
   23.0271   20.2134   21.3636 H   0  0  0  0  0  0  0  0  0  0  0  0
   22.7855   19.4889   19.7601 H   0  0  0  0  0  0  0  0  0  0  0  0
   21.8432   20.9166   20.2377 H   0  0  0  0  0  0  0  0  0  0  0  0
  1  2  1  0  0  0  0
  1  3  2  0  0  0  0
  1  4  1  0  0  0  0
  4  5  1  0  0  0  0
  4  6  2  0  0  0  0
  6  7  1  0  0  0  0
  6  8  1  0  0  0  0
  8  9  1  0  0  0  0
  8 10  1  0  0  0  0
  8 11  1  0  0  0  0
 11 12  1  0  0  0  0
 11 13  1  0  0  0  0
 11 14  1  0  0  0  0
 14 15  1  0  0  0  0
 14 16  1  0  0  0  0
 14 17  1  0  0  0  0
M  END
> <VConfSearch Rank>
102

> <Conf_Id>
1

> <Delta U+W>
0.030

> <U+W>
-53.378

> <U>
9.048

> <W>
-62.426

> <W(PB)>
-64.506

> <W(SA)>
2.080

> <Valence>
2.652

> <Coulomb>
5.578

> <VdW>
0.818

> <VdW6>
-4.535

> <VdW12>
5.352

> <Bond>
0.063

> <Angle>
2.579

> <Pdih>
0.010

> <Idih>
0.000

> <Tether>
0.000

$$$$
VeraChem MOL file


 17 16  0  0  0  0  0  0  0  0999 V2000     
   18.4211   17.9588   24.4336 C   0  0  0  0  0  0  0  0  0  0  0  0
   18.9767   16.8864   24.5807 O   0  5  0  0  0  0  0  0  0  0  0  0
   17.6959   18.4476   25.2780 O   0  0  0  0  0  0  0  0  0  0  0  0
   18.6194   18.7228   23.1722 C   0  0  0  0  0  0  0  0  0  0  0  0
   18.0938   19.6726   23.1048 H   0  0  0  0  0  0  0  0  0  0  0  0
   19.3983   18.3011   22.1502 C   0  0  0  0  0  0  0  0  0  0  0  0
   19.9320   17.3528   22.2086 H   0  0  0  0  0  0  0  0  0  0  0  0
   19.5985   19.0861   20.8708 C   0  0  0  0  0  0  0  0  0  0  0  0
   18.6434   19.5284   20.5568 H   0  0  0  0  0  0  0  0  0  0  0  0
   19.9030   18.4088   20.0616 H   0  0  0  0  0  0  0  0  0  0  0  0
   20.6485   20.2079   21.0279 C   0  0  0  0  0  0  0  0  0  0  0  0
   20.6746   20.8068   20.1072 H   0  0  0  0  0  0  0  0  0  0  0  0
   20.3459   20.8879   21.8362 H   0  0  0  0  0  0  0  0  0  0  0  0
   22.0627   19.6586   21.3127 C   0  0  0  0  0  0  0  0  0  0  0  0
   22.3914   18.9853   20.5104 H   0  0  0  0  0  0  0  0  0  0  0  0
   22.7880   20.4793   21.3850 H   0  0  0  0  0  0  0  0  0  0  0  0
   22.0885   19.1026   22.2590 H   0  0  0  0  0  0  0  0  0  0  0  0
  1  2  1  0  0  0  0
  1  3  2  0  0  0  0
  1  4  1  0  0  0  0
  4  5  1  0  0  0  0
  4  6  2  0  0  0  0
  6  7  1  0  0  0  0
  6  8  1  0  0  0  0
  8  9  1  0  0  0  0
  8 10  1  0  0  0  0
  8 11  1  0  0  0  0
 11 12  1  0  0  0  0
 11 13  1  0  0  0  0
 11 14  1  0  0  0  0
 14 15  1  0  0  0  0
 14 16  1  0  0  0  0
 14 17  1  0  0  0  0
M  END
> <VConfSearch Rank>
103

> <Conf_Id>
3

> <Delta U+W>
0.531

> <U+W>
-52.878

> <U>
10.067

> <W>
-62.945

> <W(PB)>
-64.982

> <W(SA)>
2.037

> <Valence>
2.779

> <Coulomb>
6.474

> <VdW>
0.815

> <VdW6>
-5.088

> <VdW12>
5.902

> <Bond>
0.078

> <Angle>
2.651

> <Pdih>
0.050

> <Idih>
0.000

> <Tether>
0.000

$$$$
VeraChem MOL file


 17 16  0  0  0  0  0  0  0  0999 V2000     
   19.3037   17.5212   19.5918 C   0  0  0  0  0  0  0  0  0  0  0  0
   18.7968   16.4213   19.4866 O   0  5  0  0  0  0  0  0  0  0  0  0
   19.9591   18.0340   18.7042 O   0  0  0  0  0  0  0  0  0  0  0  0
   19.0967   18.2539   20.8703 C   0  0  0  0  0  0  0  0  0  0  0  0
   18.5016   17.7388   21.6207 H   0  0  0  0  0  0  0  0  0  0  0  0
   19.6032   19.4818   21.1256 C   0  0  0  0  0  0  0  0  0  0  0  0
   20.2036   20.0035   20.3807 H   0  0  0  0  0  0  0  0  0  0  0  0
   19.3931   20.2241   22.4292 C   0  0  0  0  0  0  0  0  0  0  0  0
   18.5529   19.7913   22.9891 H   0  0  0  0  0  0  0  0  0  0  0  0
   19.1106   21.2622   22.2090 H   0  0  0  0  0  0  0  0  0  0  0  0
   20.6594   20.2264   23.3132 C   0  0  0  0  0  0  0  0  0  0  0  0
   21.5011   20.6567   22.7528 H   0  0  0  0  0  0  0  0  0  0  0  0
   20.4911   20.8816   24.1789 H   0  0  0  0  0  0  0  0  0  0  0  0
   21.0357   18.8161   23.8155 C   0  0  0  0  0  0  0  0  0  0  0  0
   21.2745   18.1478   22.9780 H   0  0  0  0  0  0  0  0  0  0  0  0
   21.9151   18.8615   24.4708 H   0  0  0  0  0  0  0  0  0  0  0  0
   20.2106   18.3694   24.3855 H   0  0  0  0  0  0  0  0  0  0  0  0
  1  2  1  0  0  0  0
  1  3  2  0  0  0  0
  1  4  1  0  0  0  0
  4  5  1  0  0  0  0
  4  6  2  0  0  0  0
  6  7  1  0  0  0  0
  6  8  1  0  0  0  0
  8  9  1  0  0  0  0
  8 10  1  0  0  0  0
  8 11  1  0  0  0  0
 11 12  1  0  0  0  0
 11 13  1  0  0  0  0
 11 14  1  0  0  0  0
 14 15  1  0  0  0  0
 14 16  1  0  0  0  0
 14 17  1  0  0  0  0
M  END
> <VConfSearch Rank>
104

> <Conf_Id>
45

> <Delta U+W>
0.562

> <U+W>
-52.846

> <U>
10.243

> <W>
-63.089

> <W(PB)>
-65.116

> <W(SA)>
2.026

> <Valence>
2.822

> <Coulomb>
6.637

> <VdW>
0.785

> <VdW6>
-5.216

> <VdW12>
6.001

> <Bond>
0.080

> <Angle>
2.678

> <Pdih>
0.064

> <Idih>
0.000

> <Tether>
0.000

$$$$
VeraChem MOL file


 17 16  0  0  0  0  0  0  0  0999 V2000     
   21.4659   19.0269   24.9468 C   0  0  0  0  0  0  0  0  0  0  0  0
   21.3281   18.2197   25.8451 O   0  5  0  0  0  0  0  0  0  0  0  0
   22.0218   20.0982   25.1008 O   0  0  0  0  0  0  0  0  0  0  0  0
   20.9238   18.6659   23.6089 C   0  0  0  0  0  0  0  0  0  0  0  0
   20.4393   17.6947   23.5395 H   0  0  0  0  0  0  0  0  0  0  0  0
   21.0048   19.4664   22.5218 C   0  0  0  0  0  0  0  0  0  0  0  0
   21.4860   20.4424   22.5808 H   0  0  0  0  0  0  0  0  0  0  0  0
   20.4489   19.0925   21.1651 C   0  0  0  0  0  0  0  0  0  0  0  0
   20.6159   18.0240   20.9723 H   0  0  0  0  0  0  0  0  0  0  0  0
   20.9908   19.6398   20.3821 H   0  0  0  0  0  0  0  0  0  0  0  0
   18.9426   19.4097   21.0683 C   0  0  0  0  0  0  0  0  0  0  0  0
   18.3983   18.8596   21.8485 H   0  0  0  0  0  0  0  0  0  0  0  0
   18.7783   20.4793   21.2595 H   0  0  0  0  0  0  0  0  0  0  0  0
   18.3703   19.0402   19.6850 C   0  0  0  0  0  0  0  0  0  0  0  0
   18.8760   19.6008   18.8879 H   0  0  0  0  0  0  0  0  0  0  0  0
   18.4942   17.9683   19.4821 H   0  0  0  0  0  0  0  0  0  0  0  0
   17.2986   19.2727   19.6352 H   0  0  0  0  0  0  0  0  0  0  0  0
  1  2  1  0  0  0  0
  1  3  2  0  0  0  0
  1  4  1  0  0  0  0
  4  5  1  0  0  0  0
  4  6  2  0  0  0  0
  6  7  1  0  0  0  0
  6  8  1  0  0  0  0
  8  9  1  0  0  0  0
  8 10  1  0  0  0  0
  8 11  1  0  0  0  0
 11 12  1  0  0  0  0
 11 13  1  0  0  0  0
 11 14  1  0  0  0  0
 14 15  1  0  0  0  0
 14 16  1  0  0  0  0
 14 17  1  0  0  0  0
M  END
> <VConfSearch Rank>
105

> <Conf_Id>
36

> <Delta U+W>
0.000

> <U+W>
-53.409

> <U>
9.048

> <W>
-62.457

> <W(PB)>
-64.540

> <W(SA)>
2.084

> <Valence>
2.652

> <Coulomb>
5.578

> <VdW>
0.818

> <VdW6>
-4.534

> <VdW12>
5.352

> <Bond>
0.063

> <Angle>
2.579

> <Pdih>
0.010

> <Idih>
0.000

> <Tether>
0.000

$$$$
VeraChem MOL file


 17 16  0  0  0  0  0  0  0  0999 V2000     
   19.7746   19.4367   25.2606 C   0  0  0  0  0  0  0  0  0  0  0  0
   18.6047   19.2685   25.5495 O   0  5  0  0  0  0  0  0  0  0  0  0
   20.5955   19.8596   26.0512 O   0  0  0  0  0  0  0  0  0  0  0  0
   20.2455   19.1166   23.8858 C   0  0  0  0  0  0  0  0  0  0  0  0
   21.3019   19.2895   23.6937 H   0  0  0  0  0  0  0  0  0  0  0  0
   19.4436   18.6409   22.9061 C   0  0  0  0  0  0  0  0  0  0  0  0
   18.3832   18.4660   23.0871 H   0  0  0  0  0  0  0  0  0  0  0  0
   19.9302   18.3196   21.5100 C   0  0  0  0  0  0  0  0  0  0  0  0
   19.2692   17.5705   21.0534 H   0  0  0  0  0  0  0  0  0  0  0  0
   20.9303   17.8675   21.5555 H   0  0  0  0  0  0  0  0  0  0  0  0
   19.9693   19.5817   20.6242 C   0  0  0  0  0  0  0  0  0  0  0  0
   18.9674   20.0308   20.5784 H   0  0  0  0  0  0  0  0  0  0  0  0
   20.6334   20.3307   21.0775 H   0  0  0  0  0  0  0  0  0  0  0  0
   20.4554   19.2610   19.1965 C   0  0  0  0  0  0  0  0  0  0  0  0
   19.7899   18.5371   18.7081 H   0  0  0  0  0  0  0  0  0  0  0  0
   20.4765   20.1703   18.5818 H   0  0  0  0  0  0  0  0  0  0  0  0
   21.4688   18.8389   19.2121 H   0  0  0  0  0  0  0  0  0  0  0  0
  1  2  1  0  0  0  0
  1  3  2  0  0  0  0
  1  4  1  0  0  0  0
  4  5  1  0  0  0  0
  4  6  2  0  0  0  0
  6  7  1  0  0  0  0
  6  8  1  0  0  0  0
  8  9  1  0  0  0  0
  8 10  1  0  0  0  0
  8 11  1  0  0  0  0
 11 12  1  0  0  0  0
 11 13  1  0  0  0  0
 11 14  1  0  0  0  0
 14 15  1  0  0  0  0
 14 16  1  0  0  0  0
 14 17  1  0  0  0  0
M  END
> <VConfSearch Rank>
106

> <Conf_Id>
1

> <Delta U+W>
0.030

> <U+W>
-53.378

> <U>
9.048

> <W>
-62.426

> <W(PB)>
-64.506

> <W(SA)>
2.080

> <Valence>
2.652

> <Coulomb>
5.578

> <VdW>
0.818

> <VdW6>
-4.535

> <VdW12>
5.352

> <Bond>
0.063

> <Angle>
2.579

> <Pdih>
0.010

> <Idih>
0.000

> <Tether>
0.000

$$$$
VeraChem MOL file


 17 16  0  0  0  0  0  0  0  0999 V2000     
   22.9662   19.9569   22.2609 C   0  0  0  0  0  0  0  0  0  0  0  0
   23.0460   20.1734   23.4556 O   0  5  0  0  0  0  0  0  0  0  0  0
   23.9418   19.8309   21.5466 O   0  0  0  0  0  0  0  0  0  0  0  0
   21.6272   19.8405   21.6225 C   0  0  0  0  0  0  0  0  0  0  0  0
   21.6268   19.6476   20.5522 H   0  0  0  0  0  0  0  0  0  0  0  0
   20.4593   19.9572   22.2943 C   0  0  0  0  0  0  0  0  0  0  0  0
   20.4482   20.1472   23.3673 H   0  0  0  0  0  0  0  0  0  0  0  0
   19.1001   19.8337   21.6383 C   0  0  0  0  0  0  0  0  0  0  0  0
   19.1131   20.3430   20.6652 H   0  0  0  0  0  0  0  0  0  0  0  0
   18.3449   20.3515   22.2448 H   0  0  0  0  0  0  0  0  0  0  0  0
   18.6778   18.3622   21.4338 C   0  0  0  0  0  0  0  0  0  0  0  0
   17.7396   18.3338   20.8627 H   0  0  0  0  0  0  0  0  0  0  0  0
   19.4310   17.8417   20.8262 H   0  0  0  0  0  0  0  0  0  0  0  0
   18.4786   17.6131   22.7687 C   0  0  0  0  0  0  0  0  0  0  0  0
   17.7199   18.1091   23.3880 H   0  0  0  0  0  0  0  0  0  0  0  0
   18.1471   16.5825   22.5872 H   0  0  0  0  0  0  0  0  0  0  0  0
   19.4140   17.5695   23.3418 H   0  0  0  0  0  0  0  0  0  0  0  0
  1  2  1  0  0  0  0
  1  3  2  0  0  0  0
  1  4  1  0  0  0  0
  4  5  1  0  0  0  0
  4  6  2  0  0  0  0
  6  7  1  0  0  0  0
  6  8  1  0  0  0  0
  8  9  1  0  0  0  0
  8 10  1  0  0  0  0
  8 11  1  0  0  0  0
 11 12  1  0  0  0  0
 11 13  1  0  0  0  0
 11 14  1  0  0  0  0
 14 15  1  0  0  0  0
 14 16  1  0  0  0  0
 14 17  1  0  0  0  0
M  END
> <VConfSearch Rank>
107

> <Conf_Id>
3

> <Delta U+W>
0.531

> <U+W>
-52.878

> <U>
10.067

> <W>
-62.945

> <W(PB)>
-64.982

> <W(SA)>
2.037

> <Valence>
2.779

> <Coulomb>
6.474

> <VdW>
0.815

> <VdW6>
-5.088

> <VdW12>
5.902

> <Bond>
0.078

> <Angle>
2.651

> <Pdih>
0.050

> <Idih>
0.000

> <Tether>
0.000

$$$$
VeraChem MOL file


 17 16  0  0  0  0  0  0  0  0999 V2000     
   17.9454   20.6606   23.6747 C   0  0  0  0  0  0  0  0  0  0  0  0
   16.7326   20.6657   23.5915 O   0  5  0  0  0  0  0  0  0  0  0  0
   18.5757   21.5644   24.1907 O   0  0  0  0  0  0  0  0  0  0  0  0
   18.6677   19.4854   23.1168 C   0  0  0  0  0  0  0  0  0  0  0  0
   18.0443   18.7142   22.6704 H   0  0  0  0  0  0  0  0  0  0  0  0
   20.0132   19.3480   23.1382 C   0  0  0  0  0  0  0  0  0  0  0  0
   20.6455   20.1177   23.5803 H   0  0  0  0  0  0  0  0  0  0  0  0
   20.7458   18.1517   22.5670 C   0  0  0  0  0  0  0  0  0  0  0  0
   20.0569   17.3077   22.4264 H   0  0  0  0  0  0  0  0  0  0  0  0
   21.4991   17.8135   23.2910 H   0  0  0  0  0  0  0  0  0  0  0  0
   21.4470   18.4774   21.2300 C   0  0  0  0  0  0  0  0  0  0  0  0
   22.1344   19.3233   21.3692 H   0  0  0  0  0  0  0  0  0  0  0  0
   22.0631   17.6185   20.9299 H   0  0  0  0  0  0  0  0  0  0  0  0
   20.4478   18.7995   20.0984 C   0  0  0  0  0  0  0  0  0  0  0  0
   19.8565   19.6937   20.3346 H   0  0  0  0  0  0  0  0  0  0  0  0
   20.9789   18.9869   19.1562 H   0  0  0  0  0  0  0  0  0  0  0  0
   19.7550   17.9635   19.9367 H   0  0  0  0  0  0  0  0  0  0  0  0
  1  2  1  0  0  0  0
  1  3  2  0  0  0  0
  1  4  1  0  0  0  0
  4  5  1  0  0  0  0
  4  6  2  0  0  0  0
  6  7  1  0  0  0  0
  6  8  1  0  0  0  0
  8  9  1  0  0  0  0
  8 10  1  0  0  0  0
  8 11  1  0  0  0  0
 11 12  1  0  0  0  0
 11 13  1  0  0  0  0
 11 14  1  0  0  0  0
 14 15  1  0  0  0  0
 14 16  1  0  0  0  0
 14 17  1  0  0  0  0
M  END
> <VConfSearch Rank>
108

> <Conf_Id>
45

> <Delta U+W>
0.562

> <U+W>
-52.846

> <U>
10.243

> <W>
-63.089

> <W(PB)>
-65.116

> <W(SA)>
2.026

> <Valence>
2.822

> <Coulomb>
6.637

> <VdW>
0.785

> <VdW6>
-5.216

> <VdW12>
6.001

> <Bond>
0.080

> <Angle>
2.678

> <Pdih>
0.064

> <Idih>
0.000

> <Tether>
0.000

$$$$
VeraChem MOL file


 17 16  0  0  0  0  0  0  0  0999 V2000     
   21.4157   17.5253   24.5247 C   0  0  0  0  0  0  0  0  0  0  0  0
   22.5022   17.7081   25.0382 O   0  5  0  0  0  0  0  0  0  0  0  0
   20.7344   16.5432   24.7521 O   0  0  0  0  0  0  0  0  0  0  0  0
   20.9178   18.5627   23.5813 C   0  0  0  0  0  0  0  0  0  0  0  0
   21.5751   19.4145   23.4225 H   0  0  0  0  0  0  0  0  0  0  0  0
   19.7301   18.4892   22.9386 C   0  0  0  0  0  0  0  0  0  0  0  0
   19.0648   17.6391   23.0885 H   0  0  0  0  0  0  0  0  0  0  0  0
   19.2321   19.5477   21.9789 C   0  0  0  0  0  0  0  0  0  0  0  0
   19.5030   20.5464   22.3477 H   0  0  0  0  0  0  0  0  0  0  0  0
   18.1350   19.5177   21.9353 H   0  0  0  0  0  0  0  0  0  0  0  0
   19.8107   19.3406   20.5643 C   0  0  0  0  0  0  0  0  0  0  0  0
   20.9083   19.3745   20.6055 H   0  0  0  0  0  0  0  0  0  0  0  0
   19.5367   18.3418   20.1968 H   0  0  0  0  0  0  0  0  0  0  0  0
   19.3004   20.4100   19.5777 C   0  0  0  0  0  0  0  0  0  0  0  0
   18.2063   20.3767   19.4933 H   0  0  0  0  0  0  0  0  0  0  0  0
   19.5885   21.4172   19.9065 H   0  0  0  0  0  0  0  0  0  0  0  0
   19.7225   20.2464   18.5776 H   0  0  0  0  0  0  0  0  0  0  0  0
  1  2  1  0  0  0  0
  1  3  2  0  0  0  0
  1  4  1  0  0  0  0
  4  5  1  0  0  0  0
  4  6  2  0  0  0  0
  6  7  1  0  0  0  0
  6  8  1  0  0  0  0
  8  9  1  0  0  0  0
  8 10  1  0  0  0  0
  8 11  1  0  0  0  0
 11 12  1  0  0  0  0
 11 13  1  0  0  0  0
 11 14  1  0  0  0  0
 14 15  1  0  0  0  0
 14 16  1  0  0  0  0
 14 17  1  0  0  0  0
M  END
> <VConfSearch Rank>
109

> <Conf_Id>
36

> <Delta U+W>
0.000

> <U+W>
-53.409

> <U>
9.048

> <W>
-62.457

> <W(PB)>
-64.540

> <W(SA)>
2.084

> <Valence>
2.652

> <Coulomb>
5.578

> <VdW>
0.818

> <VdW6>
-4.534

> <VdW12>
5.352

> <Bond>
0.063

> <Angle>
2.579

> <Pdih>
0.010

> <Idih>
0.000

> <Tether>
0.000

$$$$
VeraChem MOL file


 17 16  0  0  0  0  0  0  0  0999 V2000     
   19.8442   21.6377   19.7058 C   0  0  0  0  0  0  0  0  0  0  0  0
   19.1244   22.4854   20.1995 O   0  5  0  0  0  0  0  0  0  0  0  0
   20.2129   21.6776   18.5481 O   0  0  0  0  0  0  0  0  0  0  0  0
   20.3077   20.4931   20.5359 C   0  0  0  0  0  0  0  0  0  0  0  0
   20.9483   19.7715   20.0340 H   0  0  0  0  0  0  0  0  0  0  0  0
   19.9753   20.3211   21.8355 C   0  0  0  0  0  0  0  0  0  0  0  0
   19.3323   21.0368   22.3476 H   0  0  0  0  0  0  0  0  0  0  0  0
   20.4495   19.1531   22.6722 C   0  0  0  0  0  0  0  0  0  0  0  0
   20.4429   19.4344   23.7339 H   0  0  0  0  0  0  0  0  0  0  0  0
   21.4904   18.9087   22.4201 H   0  0  0  0  0  0  0  0  0  0  0  0
   19.5578   17.9123   22.4616 C   0  0  0  0  0  0  0  0  0  0  0  0
   18.5176   18.1586   22.7164 H   0  0  0  0  0  0  0  0  0  0  0  0
   19.5666   17.6269   21.4004 H   0  0  0  0  0  0  0  0  0  0  0  0
   20.0291   16.7199   23.3181 C   0  0  0  0  0  0  0  0  0  0  0  0
   19.9998   16.9680   24.3872 H   0  0  0  0  0  0  0  0  0  0  0  0
   19.3832   15.8473   23.1550 H   0  0  0  0  0  0  0  0  0  0  0  0
   21.0572   16.4333   23.0605 H   0  0  0  0  0  0  0  0  0  0  0  0
  1  2  1  0  0  0  0
  1  3  2  0  0  0  0
  1  4  1  0  0  0  0
  4  5  1  0  0  0  0
  4  6  2  0  0  0  0
  6  7  1  0  0  0  0
  6  8  1  0  0  0  0
  8  9  1  0  0  0  0
  8 10  1  0  0  0  0
  8 11  1  0  0  0  0
 11 12  1  0  0  0  0
 11 13  1  0  0  0  0
 11 14  1  0  0  0  0
 14 15  1  0  0  0  0
 14 16  1  0  0  0  0
 14 17  1  0  0  0  0
M  END
> <VConfSearch Rank>
110

> <Conf_Id>
1

> <Delta U+W>
0.030

> <U+W>
-53.378

> <U>
9.048

> <W>
-62.426

> <W(PB)>
-64.506

> <W(SA)>
2.080

> <Valence>
2.652

> <Coulomb>
5.578

> <VdW>
0.818

> <VdW6>
-4.535

> <VdW12>
5.352

> <Bond>
0.063

> <Angle>
2.579

> <Pdih>
0.010

> <Idih>
0.000

> <Tether>
0.000

$$$$
VeraChem MOL file


 17 16  0  0  0  0  0  0  0  0999 V2000     
   22.1413   20.4729   20.2989 C   0  0  0  0  0  0  0  0  0  0  0  0
   21.7619   20.1417   19.1913 O   0  5  0  0  0  0  0  0  0  0  0  0
   22.9369   21.3736   20.4819 O   0  0  0  0  0  0  0  0  0  0  0  0
   21.6260   19.7571   21.4973 C   0  0  0  0  0  0  0  0  0  0  0  0
   22.0059   20.1020   22.4562 H   0  0  0  0  0  0  0  0  0  0  0  0
   20.7378   18.7386   21.4428 C   0  0  0  0  0  0  0  0  0  0  0  0
   20.3481   18.3872   20.4877 H   0  0  0  0  0  0  0  0  0  0  0  0
   20.2148   18.0173   22.6672 C   0  0  0  0  0  0  0  0  0  0  0  0
   21.0346   17.8626   23.3818 H   0  0  0  0  0  0  0  0  0  0  0  0
   19.8599   17.0164   22.3871 H   0  0  0  0  0  0  0  0  0  0  0  0
   19.0754   18.7928   23.3642 C   0  0  0  0  0  0  0  0  0  0  0  0
   18.8098   18.2786   24.2981 H   0  0  0  0  0  0  0  0  0  0  0  0
   19.4279   19.7945   23.6468 H   0  0  0  0  0  0  0  0  0  0  0  0
   17.8161   18.9152   22.4799 C   0  0  0  0  0  0  0  0  0  0  0  0
   17.4383   17.9246   22.1954 H   0  0  0  0  0  0  0  0  0  0  0  0
   17.0167   19.4412   23.0176 H   0  0  0  0  0  0  0  0  0  0  0  0
   18.0301   19.4774   21.5615 H   0  0  0  0  0  0  0  0  0  0  0  0
  1  2  1  0  0  0  0
  1  3  2  0  0  0  0
  1  4  1  0  0  0  0
  4  5  1  0  0  0  0
  4  6  2  0  0  0  0
  6  7  1  0  0  0  0
  6  8  1  0  0  0  0
  8  9  1  0  0  0  0
  8 10  1  0  0  0  0
  8 11  1  0  0  0  0
 11 12  1  0  0  0  0
 11 13  1  0  0  0  0
 11 14  1  0  0  0  0
 14 15  1  0  0  0  0
 14 16  1  0  0  0  0
 14 17  1  0  0  0  0
M  END
> <VConfSearch Rank>
111

> <Conf_Id>
3

> <Delta U+W>
0.531

> <U+W>
-52.878

> <U>
10.067

> <W>
-62.945

> <W(PB)>
-64.982

> <W(SA)>
2.037

> <Valence>
2.779

> <Coulomb>
6.474

> <VdW>
0.815

> <VdW6>
-5.088

> <VdW12>
5.902

> <Bond>
0.078

> <Angle>
2.651

> <Pdih>
0.050

> <Idih>
0.000

> <Tether>
0.000

$$$$
VeraChem MOL file


 17 16  0  0  0  0  0  0  0  0999 V2000     
   22.6499   20.4926   22.2585 C   0  0  0  0  0  0  0  0  0  0  0  0
   23.0061   21.3919   22.9949 O   0  5  0  0  0  0  0  0  0  0  0  0
   23.2131   20.2344   21.2113 O   0  0  0  0  0  0  0  0  0  0  0  0
   21.4734   19.6848   22.6795 C   0  0  0  0  0  0  0  0  0  0  0  0
   21.0176   19.9685   23.6252 H   0  0  0  0  0  0  0  0  0  0  0  0
   20.9676   18.6579   21.9589 C   0  0  0  0  0  0  0  0  0  0  0  0
   21.4159   18.3693   21.0085 H   0  0  0  0  0  0  0  0  0  0  0  0
   19.7680   17.8390   22.3887 C   0  0  0  0  0  0  0  0  0  0  0  0
   19.5695   17.9775   23.4603 H   0  0  0  0  0  0  0  0  0  0  0  0
   19.9956   16.7729   22.2558 H   0  0  0  0  0  0  0  0  0  0  0  0
   18.5005   18.1855   21.5772 C   0  0  0  0  0  0  0  0  0  0  0  0
   18.6990   18.0498   20.5050 H   0  0  0  0  0  0  0  0  0  0  0  0
   17.7019   17.4784   21.8405 H   0  0  0  0  0  0  0  0  0  0  0  0
   18.0041   19.6240   21.8364 C   0  0  0  0  0  0  0  0  0  0  0  0
   18.7528   20.3637   21.5244 H   0  0  0  0  0  0  0  0  0  0  0  0
   17.0820   19.8213   21.2746 H   0  0  0  0  0  0  0  0  0  0  0  0
   17.7920   19.7800   22.9022 H   0  0  0  0  0  0  0  0  0  0  0  0
  1  2  1  0  0  0  0
  1  3  2  0  0  0  0
  1  4  1  0  0  0  0
  4  5  1  0  0  0  0
  4  6  2  0  0  0  0
  6  7  1  0  0  0  0
  6  8  1  0  0  0  0
  8  9  1  0  0  0  0
  8 10  1  0  0  0  0
  8 11  1  0  0  0  0
 11 12  1  0  0  0  0
 11 13  1  0  0  0  0
 11 14  1  0  0  0  0
 14 15  1  0  0  0  0
 14 16  1  0  0  0  0
 14 17  1  0  0  0  0
M  END
> <VConfSearch Rank>
112

> <Conf_Id>
45

> <Delta U+W>
0.562

> <U+W>
-52.846

> <U>
10.243

> <W>
-63.089

> <W(PB)>
-65.116

> <W(SA)>
2.026

> <Valence>
2.822

> <Coulomb>
6.637

> <VdW>
0.785

> <VdW6>
-5.216

> <VdW12>
6.001

> <Bond>
0.080

> <Angle>
2.678

> <Pdih>
0.064

> <Idih>
0.000

> <Tether>
0.000

$$$$
VeraChem MOL file


 17 16  0  0  0  0  0  0  0  0999 V2000     
   21.9773   21.8437   22.0151 C   0  0  0  0  0  0  0  0  0  0  0  0
   23.1391   21.9373   22.3601 O   0  5  0  0  0  0  0  0  0  0  0  0
   21.2565   22.8104   21.8526 O   0  0  0  0  0  0  0  0  0  0  0  0
   21.4360   20.4767   21.7863 C   0  0  0  0  0  0  0  0  0  0  0  0
   22.1322   19.6571   21.9491 H   0  0  0  0  0  0  0  0  0  0  0  0
   20.1640   20.2242   21.4021 C   0  0  0  0  0  0  0  0  0  0  0  0
   19.4575   21.0376   21.2385 H   0  0  0  0  0  0  0  0  0  0  0  0
   19.6208   18.8306   21.1737 C   0  0  0  0  0  0  0  0  0  0  0  0
   20.3862   18.2025   20.6978 H   0  0  0  0  0  0  0  0  0  0  0  0
   18.7748   18.8757   20.4747 H   0  0  0  0  0  0  0  0  0  0  0  0
   19.1636   18.1819   22.4963 C   0  0  0  0  0  0  0  0  0  0  0  0
   20.0100   18.1323   23.1953 H   0  0  0  0  0  0  0  0  0  0  0  0
   18.3967   18.8110   22.9692 H   0  0  0  0  0  0  0  0  0  0  0  0
   18.5998   16.7647   22.2707 C   0  0  0  0  0  0  0  0  0  0  0  0
   17.7313   16.7894   21.5995 H   0  0  0  0  0  0  0  0  0  0  0  0
   19.3579   16.1063   21.8266 H   0  0  0  0  0  0  0  0  0  0  0  0
   18.2801   16.3197   23.2220 H   0  0  0  0  0  0  0  0  0  0  0  0
  1  2  1  0  0  0  0
  1  3  2  0  0  0  0
  1  4  1  0  0  0  0
  4  5  1  0  0  0  0
  4  6  2  0  0  0  0
  6  7  1  0  0  0  0
  6  8  1  0  0  0  0
  8  9  1  0  0  0  0
  8 10  1  0  0  0  0
  8 11  1  0  0  0  0
 11 12  1  0  0  0  0
 11 13  1  0  0  0  0
 11 14  1  0  0  0  0
 14 15  1  0  0  0  0
 14 16  1  0  0  0  0
 14 17  1  0  0  0  0
M  END
> <VConfSearch Rank>
113

> <Conf_Id>
36

> <Delta U+W>
0.000

> <U+W>
-53.409

> <U>
9.048

> <W>
-62.457

> <W(PB)>
-64.540

> <W(SA)>
2.084

> <Valence>
2.652

> <Coulomb>
5.578

> <VdW>
0.818

> <VdW6>
-4.534

> <VdW12>
5.352

> <Bond>
0.063

> <Angle>
2.579

> <Pdih>
0.010

> <Idih>
0.000

> <Tether>
0.000

$$$$
VeraChem MOL file


 17 16  0  0  0  0  0  0  0  0999 V2000     
   18.7543   20.9597   24.4250 C   0  0  0  0  0  0  0  0  0  0  0  0
   19.2756   20.5671   25.4518 O   0  5  0  0  0  0  0  0  0  0  0  0
   17.8117   21.7272   24.4149 O   0  0  0  0  0  0  0  0  0  0  0  0
   19.2766   20.4952   23.1114 C   0  0  0  0  0  0  0  0  0  0  0  0
   18.7660   20.8838   22.2333 H   0  0  0  0  0  0  0  0  0  0  0  0
   20.3170   19.6421   22.9730 C   0  0  0  0  0  0  0  0  0  0  0  0
   20.8344   19.2450   23.8461 H   0  0  0  0  0  0  0  0  0  0  0  0
   20.8409   19.1732   21.6333 C   0  0  0  0  0  0  0  0  0  0  0  0
   21.8942   18.8781   21.7330 H   0  0  0  0  0  0  0  0  0  0  0  0
   20.8150   19.9994   20.9098 H   0  0  0  0  0  0  0  0  0  0  0  0
   20.0205   17.9834   21.0943 C   0  0  0  0  0  0  0  0  0  0  0  0
   20.0497   17.1576   21.8187 H   0  0  0  0  0  0  0  0  0  0  0  0
   18.9670   18.2782   20.9900 H   0  0  0  0  0  0  0  0  0  0  0  0
   20.5541   17.4934   19.7331 C   0  0  0  0  0  0  0  0  0  0  0  0
   21.5976   17.1624   19.8162 H   0  0  0  0  0  0  0  0  0  0  0  0
   19.9585   16.6474   19.3661 H   0  0  0  0  0  0  0  0  0  0  0  0
   20.5065   18.2926   18.9818 H   0  0  0  0  0  0  0  0  0  0  0  0
  1  2  1  0  0  0  0
  1  3  2  0  0  0  0
  1  4  1  0  0  0  0
  4  5  1  0  0  0  0
  4  6  2  0  0  0  0
  6  7  1  0  0  0  0
  6  8  1  0  0  0  0
  8  9  1  0  0  0  0
  8 10  1  0  0  0  0
  8 11  1  0  0  0  0
 11 12  1  0  0  0  0
 11 13  1  0  0  0  0
 11 14  1  0  0  0  0
 14 15  1  0  0  0  0
 14 16  1  0  0  0  0
 14 17  1  0  0  0  0
M  END
> <VConfSearch Rank>
114

> <Conf_Id>
1

> <Delta U+W>
0.030

> <U+W>
-53.378

> <U>
9.048

> <W>
-62.426

> <W(PB)>
-64.506

> <W(SA)>
2.080

> <Valence>
2.652

> <Coulomb>
5.578

> <VdW>
0.818

> <VdW6>
-4.535

> <VdW12>
5.352

> <Bond>
0.063

> <Angle>
2.579

> <Pdih>
0.010

> <Idih>
0.000

> <Tether>
0.000

$$$$
VeraChem MOL file


 17 16  0  0  0  0  0  0  0  0999 V2000     
   18.3599   21.4619   20.9922 C   0  0  0  0  0  0  0  0  0  0  0  0
   18.8168   22.3657   21.6667 O   0  5  0  0  0  0  0  0  0  0  0  0
   17.6954   21.6553   19.9928 O   0  0  0  0  0  0  0  0  0  0  0  0
   18.6087   20.0497   21.3894 C   0  0  0  0  0  0  0  0  0  0  0  0
   18.1716   19.2910   20.7443 H   0  0  0  0  0  0  0  0  0  0  0  0
   19.3302   19.6880   22.4746 C   0  0  0  0  0  0  0  0  0  0  0  0
   19.7754   20.4398   23.1259 H   0  0  0  0  0  0  0  0  0  0  0  0
   19.5825   18.2483   22.8706 C   0  0  0  0  0  0  0  0  0  0  0  0
   18.6674   17.6594   22.7210 H   0  0  0  0  0  0  0  0  0  0  0  0
   19.8114   18.1912   23.9432 H   0  0  0  0  0  0  0  0  0  0  0  0
   20.7333   17.6096   22.0623 C   0  0  0  0  0  0  0  0  0  0  0  0
   20.8006   16.5425   22.3150 H   0  0  0  0  0  0  0  0  0  0  0  0
   20.5066   17.6642   20.9885 H   0  0  0  0  0  0  0  0  0  0  0  0
   22.0952   18.2808   22.3408 C   0  0  0  0  0  0  0  0  0  0  0  0
   22.3487   18.2270   23.4076 H   0  0  0  0  0  0  0  0  0  0  0  0
   22.8939   17.7816   21.7770 H   0  0  0  0  0  0  0  0  0  0  0  0
   22.0840   19.3377   22.0439 H   0  0  0  0  0  0  0  0  0  0  0  0
  1  2  1  0  0  0  0
  1  3  2  0  0  0  0
  1  4  1  0  0  0  0
  4  5  1  0  0  0  0
  4  6  2  0  0  0  0
  6  7  1  0  0  0  0
  6  8  1  0  0  0  0
  8  9  1  0  0  0  0
  8 10  1  0  0  0  0
  8 11  1  0  0  0  0
 11 12  1  0  0  0  0
 11 13  1  0  0  0  0
 11 14  1  0  0  0  0
 14 15  1  0  0  0  0
 14 16  1  0  0  0  0
 14 17  1  0  0  0  0
M  END
> <VConfSearch Rank>
115

> <Conf_Id>
3

> <Delta U+W>
0.531

> <U+W>
-52.878

> <U>
10.067

> <W>
-62.945

> <W(PB)>
-64.982

> <W(SA)>
2.037

> <Valence>
2.779

> <Coulomb>
6.474

> <VdW>
0.815

> <VdW6>
-5.088

> <VdW12>
5.902

> <Bond>
0.078

> <Angle>
2.651

> <Pdih>
0.050

> <Idih>
0.000

> <Tether>
0.000

$$$$
VeraChem MOL file


 17 16  0  0  0  0  0  0  0  0999 V2000     
   21.3976   16.5824   21.2023 C   0  0  0  0  0  0  0  0  0  0  0  0
   20.9529   15.4660   21.0189 O   0  5  0  0  0  0  0  0  0  0  0  0
   22.5775   16.7979   21.4067 O   0  0  0  0  0  0  0  0  0  0  0  0
   20.4377   17.7189   21.1673 C   0  0  0  0  0  0  0  0  0  0  0  0
   19.3991   17.4563   20.9800 H   0  0  0  0  0  0  0  0  0  0  0  0
   20.7919   19.0105   21.3567 C   0  0  0  0  0  0  0  0  0  0  0  0
   21.8297   19.2819   21.5486 H   0  0  0  0  0  0  0  0  0  0  0  0
   19.8120   20.1650   21.3233 C   0  0  0  0  0  0  0  0  0  0  0  0
   18.8758   19.8632   20.8342 H   0  0  0  0  0  0  0  0  0  0  0  0
   20.2308   20.9729   20.7086 H   0  0  0  0  0  0  0  0  0  0  0  0
   19.5065   20.7156   22.7335 C   0  0  0  0  0  0  0  0  0  0  0  0
   20.4427   21.0153   23.2246 H   0  0  0  0  0  0  0  0  0  0  0  0
   18.8968   21.6247   22.6391 H   0  0  0  0  0  0  0  0  0  0  0  0
   18.7572   19.6973   23.6193 C   0  0  0  0  0  0  0  0  0  0  0  0
   19.3642   18.7987   23.7900 H   0  0  0  0  0  0  0  0  0  0  0  0
   18.5229   20.1357   24.5979 H   0  0  0  0  0  0  0  0  0  0  0  0
   17.8134   19.3893   23.1508 H   0  0  0  0  0  0  0  0  0  0  0  0
  1  2  1  0  0  0  0
  1  3  2  0  0  0  0
  1  4  1  0  0  0  0
  4  5  1  0  0  0  0
  4  6  2  0  0  0  0
  6  7  1  0  0  0  0
  6  8  1  0  0  0  0
  8  9  1  0  0  0  0
  8 10  1  0  0  0  0
  8 11  1  0  0  0  0
 11 12  1  0  0  0  0
 11 13  1  0  0  0  0
 11 14  1  0  0  0  0
 14 15  1  0  0  0  0
 14 16  1  0  0  0  0
 14 17  1  0  0  0  0
M  END
> <VConfSearch Rank>
116

> <Conf_Id>
45

> <Delta U+W>
0.562

> <U+W>
-52.846

> <U>
10.243

> <W>
-63.089

> <W(PB)>
-65.116

> <W(SA)>
2.026

> <Valence>
2.822

> <Coulomb>
6.637

> <VdW>
0.785

> <VdW6>
-5.216

> <VdW12>
6.001

> <Bond>
0.080

> <Angle>
2.678

> <Pdih>
0.064

> <Idih>
0.000

> <Tether>
0.000

$$$$
VeraChem MOL file


 17 16  0  0  0  0  0  0  0  0999 V2000     
   17.7924   21.3330   20.6381 C   0  0  0  0  0  0  0  0  0  0  0  0
   17.9381   22.1251   19.7275 O   0  5  0  0  0  0  0  0  0  0  0  0
   16.8503   21.3763   21.4068 O   0  0  0  0  0  0  0  0  0  0  0  0
   18.8237   20.2724   20.7984 C   0  0  0  0  0  0  0  0  0  0  0  0
   19.6387   20.2903   20.0785 H   0  0  0  0  0  0  0  0  0  0  0  0
   18.7895   19.3280   21.7658 C   0  0  0  0  0  0  0  0  0  0  0  0
   17.9787   19.3023   22.4937 H   0  0  0  0  0  0  0  0  0  0  0  0
   19.8436   18.2540   21.9233 C   0  0  0  0  0  0  0  0  0  0  0  0
   20.1695   17.9000   20.9357 H   0  0  0  0  0  0  0  0  0  0  0  0
   19.4105   17.3864   22.4390 H   0  0  0  0  0  0  0  0  0  0  0  0
   21.0597   18.7726   22.7178 C   0  0  0  0  0  0  0  0  0  0  0  0
   21.4968   19.6382   22.2009 H   0  0  0  0  0  0  0  0  0  0  0  0
   20.7315   19.1242   23.7058 H   0  0  0  0  0  0  0  0  0  0  0  0
   22.1348   17.6809   22.8908 C   0  0  0  0  0  0  0  0  0  0  0  0
   21.7324   16.8156   23.4336 H   0  0  0  0  0  0  0  0  0  0  0  0
   22.5025   17.3337   21.9163 H   0  0  0  0  0  0  0  0  0  0  0  0
   22.9914   18.0681   23.4578 H   0  0  0  0  0  0  0  0  0  0  0  0
  1  2  1  0  0  0  0
  1  3  2  0  0  0  0
  1  4  1  0  0  0  0
  4  5  1  0  0  0  0
  4  6  2  0  0  0  0
  6  7  1  0  0  0  0
  6  8  1  0  0  0  0
  8  9  1  0  0  0  0
  8 10  1  0  0  0  0
  8 11  1  0  0  0  0
 11 12  1  0  0  0  0
 11 13  1  0  0  0  0
 11 14  1  0  0  0  0
 14 15  1  0  0  0  0
 14 16  1  0  0  0  0
 14 17  1  0  0  0  0
M  END
> <VConfSearch Rank>
117

> <Conf_Id>
36

> <Delta U+W>
0.000

> <U+W>
-53.409

> <U>
9.048

> <W>
-62.457

> <W(PB)>
-64.540

> <W(SA)>
2.084

> <Valence>
2.652

> <Coulomb>
5.578

> <VdW>
0.818

> <VdW6>
-4.534

> <VdW12>
5.352

> <Bond>
0.063

> <Angle>
2.579

> <Pdih>
0.010

> <Idih>
0.000

> <Tether>
0.000

$$$$
VeraChem MOL file


 17 16  0  0  0  0  0  0  0  0999 V2000     
   17.1156   18.1584   23.3636 C   0  0  0  0  0  0  0  0  0  0  0  0
   16.2841   18.0906   22.4779 O   0  5  0  0  0  0  0  0  0  0  0  0
   16.8292   18.1009   24.5436 O   0  0  0  0  0  0  0  0  0  0  0  0
   18.5527   18.3175   23.0119 C   0  0  0  0  0  0  0  0  0  0  0  0
   19.2433   18.3714   23.8503 H   0  0  0  0  0  0  0  0  0  0  0  0
   19.0138   18.3965   21.7429 C   0  0  0  0  0  0  0  0  0  0  0  0
   18.3304   18.3458   20.8955 H   0  0  0  0  0  0  0  0  0  0  0  0
   20.4769   18.5601   21.3938 C   0  0  0  0  0  0  0  0  0  0  0  0
   20.6606   18.1663   20.3851 H   0  0  0  0  0  0  0  0  0  0  0  0
   21.0953   17.9647   22.0792 H   0  0  0  0  0  0  0  0  0  0  0  0
   20.9075   20.0399   21.4565 C   0  0  0  0  0  0  0  0  0  0  0  0
   20.2890   20.6330   20.7686 H   0  0  0  0  0  0  0  0  0  0  0  0
   20.7281   20.4343   22.4664 H   0  0  0  0  0  0  0  0  0  0  0  0
   22.3955   20.2162   21.0929 C   0  0  0  0  0  0  0  0  0  0  0  0
   22.5963   19.8583   20.0746 H   0  0  0  0  0  0  0  0  0  0  0  0
   22.6831   21.2744   21.1430 H   0  0  0  0  0  0  0  0  0  0  0  0
   23.0381   19.6573   21.7859 H   0  0  0  0  0  0  0  0  0  0  0  0
  1  2  1  0  0  0  0
  1  3  2  0  0  0  0
  1  4  1  0  0  0  0
  4  5  1  0  0  0  0
  4  6  2  0  0  0  0
  6  7  1  0  0  0  0
  6  8  1  0  0  0  0
  8  9  1  0  0  0  0
  8 10  1  0  0  0  0
  8 11  1  0  0  0  0
 11 12  1  0  0  0  0
 11 13  1  0  0  0  0
 11 14  1  0  0  0  0
 14 15  1  0  0  0  0
 14 16  1  0  0  0  0
 14 17  1  0  0  0  0
M  END
> <VConfSearch Rank>
118

> <Conf_Id>
1

> <Delta U+W>
0.030

> <U+W>
-53.378

> <U>
9.048

> <W>
-62.426

> <W(PB)>
-64.506

> <W(SA)>
2.080

> <Valence>
2.652

> <Coulomb>
5.578

> <VdW>
0.818

> <VdW6>
-4.535

> <VdW12>
5.352

> <Bond>
0.063

> <Angle>
2.579

> <Pdih>
0.010

> <Idih>
0.000

> <Tether>
0.000

$$$$
VeraChem MOL file


 17 16  0  0  0  0  0  0  0  0999 V2000     
   21.3987   17.4346   19.8466 C   0  0  0  0  0  0  0  0  0  0  0  0
   20.4568   17.2278   19.1047 O   0  5  0  0  0  0  0  0  0  0  0  0
   22.5544   17.2694   19.5076 O   0  0  0  0  0  0  0  0  0  0  0  0
   21.1508   17.9074   21.2355 C   0  0  0  0  0  0  0  0  0  0  0  0
   22.0356   18.0719   21.8460 H   0  0  0  0  0  0  0  0  0  0  0  0
   19.9191   18.1345   21.7458 C   0  0  0  0  0  0  0  0  0  0  0  0
   19.0259   17.9762   21.1418 H   0  0  0  0  0  0  0  0  0  0  0  0
   19.6747   18.6195   23.1593 C   0  0  0  0  0  0  0  0  0  0  0  0
   20.3606   18.1078   23.8480 H   0  0  0  0  0  0  0  0  0  0  0  0
   18.6600   18.3449   23.4775 H   0  0  0  0  0  0  0  0  0  0  0  0
   19.8639   20.1461   23.2977 C   0  0  0  0  0  0  0  0  0  0  0  0
   19.7786   20.4240   24.3572 H   0  0  0  0  0  0  0  0  0  0  0  0
   20.8788   20.4238   22.9811 H   0  0  0  0  0  0  0  0  0  0  0  0
   18.8272   20.9470   22.4811 C   0  0  0  0  0  0  0  0  0  0  0  0
   17.8044   20.6945   22.7897 H   0  0  0  0  0  0  0  0  0  0  0  0
   18.9694   22.0253   22.6288 H   0  0  0  0  0  0  0  0  0  0  0  0
   18.9226   20.7391   21.4074 H   0  0  0  0  0  0  0  0  0  0  0  0
  1  2  1  0  0  0  0
  1  3  2  0  0  0  0
  1  4  1  0  0  0  0
  4  5  1  0  0  0  0
  4  6  2  0  0  0  0
  6  7  1  0  0  0  0
  6  8  1  0  0  0  0
  8  9  1  0  0  0  0
  8 10  1  0  0  0  0
  8 11  1  0  0  0  0
 11 12  1  0  0  0  0
 11 13  1  0  0  0  0
 11 14  1  0  0  0  0
 14 15  1  0  0  0  0
 14 16  1  0  0  0  0
 14 17  1  0  0  0  0
M  END
> <VConfSearch Rank>
119

> <Conf_Id>
3

> <Delta U+W>
0.531

> <U+W>
-52.878

> <U>
10.067

> <W>
-62.945

> <W(PB)>
-64.982

> <W(SA)>
2.037

> <Valence>
2.779

> <Coulomb>
6.474

> <VdW>
0.815

> <VdW6>
-5.088

> <VdW12>
5.902

> <Bond>
0.078

> <Angle>
2.651

> <Pdih>
0.050

> <Idih>
0.000

> <Tether>
0.000

$$$$
VeraChem MOL file


 17 16  0  0  0  0  0  0  0  0999 V2000     
   22.4983   18.8519   20.4335 C   0  0  0  0  0  0  0  0  0  0  0  0
   22.6990   18.2230   19.4127 O   0  5  0  0  0  0  0  0  0  0  0  0
   23.3943   19.2148   21.1724 O   0  0  0  0  0  0  0  0  0  0  0  0
   21.0874   19.1829   20.7707 C   0  0  0  0  0  0  0  0  0  0  0  0
   20.3366   18.8288   20.0682 H   0  0  0  0  0  0  0  0  0  0  0  0
   20.7184   19.8737   21.8736 C   0  0  0  0  0  0  0  0  0  0  0  0
   21.4639   20.2290   22.5846 H   0  0  0  0  0  0  0  0  0  0  0  0
   19.2809   20.2068   22.2157 C   0  0  0  0  0  0  0  0  0  0  0  0
   18.6376   20.0952   21.3322 H   0  0  0  0  0  0  0  0  0  0  0  0
   19.2177   21.2635   22.5078 H   0  0  0  0  0  0  0  0  0  0  0  0
   18.7355   19.3351   23.3680 C   0  0  0  0  0  0  0  0  0  0  0  0
   19.3799   19.4441   24.2514 H   0  0  0  0  0  0  0  0  0  0  0  0
   17.7418   19.7040   23.6571 H   0  0  0  0  0  0  0  0  0  0  0  0
   18.6263   17.8439   22.9844 C   0  0  0  0  0  0  0  0  0  0  0  0
   19.6123   17.4218   22.7504 H   0  0  0  0  0  0  0  0  0  0  0  0
   18.1994   17.2626   23.8119 H   0  0  0  0  0  0  0  0  0  0  0  0
   17.9798   17.7106   22.1072 H   0  0  0  0  0  0  0  0  0  0  0  0
  1  2  1  0  0  0  0
  1  3  2  0  0  0  0
  1  4  1  0  0  0  0
  4  5  1  0  0  0  0
  4  6  2  0  0  0  0
  6  7  1  0  0  0  0
  6  8  1  0  0  0  0
  8  9  1  0  0  0  0
  8 10  1  0  0  0  0
  8 11  1  0  0  0  0
 11 12  1  0  0  0  0
 11 13  1  0  0  0  0
 11 14  1  0  0  0  0
 14 15  1  0  0  0  0
 14 16  1  0  0  0  0
 14 17  1  0  0  0  0
M  END
> <VConfSearch Rank>
120

> <Conf_Id>
45

> <Delta U+W>
0.562

> <U+W>
-52.846

> <U>
10.243

> <W>
-63.089

> <W(PB)>
-65.116

> <W(SA)>
2.026

> <Valence>
2.822

> <Coulomb>
6.637

> <VdW>
0.785

> <VdW6>
-5.216

> <VdW12>
6.001

> <Bond>
0.080

> <Angle>
2.678

> <Pdih>
0.064

> <Idih>
0.000

> <Tether>
0.000

$$$$
VeraChem MOL file


 17 16  0  0  0  0  0  0  0  0999 V2000     
   21.8909   16.5467   22.9934 C   0  0  0  0  0  0  0  0  0  0  0  0
   21.5462   15.4844   23.4734 O   0  5  0  0  0  0  0  0  0  0  0  0
   23.0386   16.9487   23.0343 O   0  0  0  0  0  0  0  0  0  0  0  0
   20.8459   17.3732   22.3310 C   0  0  0  0  0  0  0  0  0  0  0  0
   19.8414   16.9563   22.3293 H   0  0  0  0  0  0  0  0  0  0  0  0
   21.0862   18.5740   21.7570 C   0  0  0  0  0  0  0  0  0  0  0  0
   22.0885   19.0022   21.7550 H   0  0  0  0  0  0  0  0  0  0  0  0
   20.0172   19.4093   21.0872 C   0  0  0  0  0  0  0  0  0  0  0  0
   19.3219   18.7597   20.5383 H   0  0  0  0  0  0  0  0  0  0  0  0
   20.4802   20.0712   20.3428 H   0  0  0  0  0  0  0  0  0  0  0  0
   19.2380   20.2545   22.1156 C   0  0  0  0  0  0  0  0  0  0  0  0
   18.7707   19.5935   22.8588 H   0  0  0  0  0  0  0  0  0  0  0  0
   19.9353   20.9049   22.6619 H   0  0  0  0  0  0  0  0  0  0  0  0
   18.1526   21.1161   21.4397 C   0  0  0  0  0  0  0  0  0  0  0  0
   18.5968   21.8096   20.7136 H   0  0  0  0  0  0  0  0  0  0  0  0
   17.4240   20.4870   20.9117 H   0  0  0  0  0  0  0  0  0  0  0  0
   17.6093   21.7097   22.1865 H   0  0  0  0  0  0  0  0  0  0  0  0
  1  2  1  0  0  0  0
  1  3  2  0  0  0  0
  1  4  1  0  0  0  0
  4  5  1  0  0  0  0
  4  6  2  0  0  0  0
  6  7  1  0  0  0  0
  6  8  1  0  0  0  0
  8  9  1  0  0  0  0
  8 10  1  0  0  0  0
  8 11  1  0  0  0  0
 11 12  1  0  0  0  0
 11 13  1  0  0  0  0
 11 14  1  0  0  0  0
 14 15  1  0  0  0  0
 14 16  1  0  0  0  0
 14 17  1  0  0  0  0
M  END
> <VConfSearch Rank>
121

> <Conf_Id>
36

> <Delta U+W>
0.000

> <U+W>
-53.409

> <U>
9.048

> <W>
-62.457

> <W(PB)>
-64.540

> <W(SA)>
2.084

> <Valence>
2.652

> <Coulomb>
5.578

> <VdW>
0.818

> <VdW6>
-4.534

> <VdW12>
5.352

> <Bond>
0.063

> <Angle>
2.579

> <Pdih>
0.010

> <Idih>
0.000

> <Tether>
0.000

$$$$
VeraChem MOL file


 17 16  0  0  0  0  0  0  0  0999 V2000     
   18.5138   16.3991   20.5469 C   0  0  0  0  0  0  0  0  0  0  0  0
   18.8503   16.3631   19.3783 O   0  5  0  0  0  0  0  0  0  0  0  0
   17.6334   15.6953   21.0022 O   0  0  0  0  0  0  0  0  0  0  0  0
   19.1960   17.3366   21.4796 C   0  0  0  0  0  0  0  0  0  0  0  0
   18.8475   17.3186   22.5097 H   0  0  0  0  0  0  0  0  0  0  0  0
   20.1895   18.1768   21.1109 C   0  0  0  0  0  0  0  0  0  0  0  0
   20.5449   18.2045   20.0810 H   0  0  0  0  0  0  0  0  0  0  0  0
   20.8768   19.1285   22.0654 C   0  0  0  0  0  0  0  0  0  0  0  0
   21.8828   19.3620   21.6913 H   0  0  0  0  0  0  0  0  0  0  0  0
   21.0112   18.6473   23.0438 H   0  0  0  0  0  0  0  0  0  0  0  0
   20.0728   20.4340   22.2334 C   0  0  0  0  0  0  0  0  0  0  0  0
   19.9416   20.9145   21.2539 H   0  0  0  0  0  0  0  0  0  0  0  0
   19.0673   20.2025   22.6116 H   0  0  0  0  0  0  0  0  0  0  0  0
   20.7715   21.4134   23.1978 C   0  0  0  0  0  0  0  0  0  0  0  0
   21.7680   21.6866   22.8268 H   0  0  0  0  0  0  0  0  0  0  0  0
   20.1852   22.3353   23.3046 H   0  0  0  0  0  0  0  0  0  0  0  0
   20.8869   20.9679   24.1947 H   0  0  0  0  0  0  0  0  0  0  0  0
  1  2  1  0  0  0  0
  1  3  2  0  0  0  0
  1  4  1  0  0  0  0
  4  5  1  0  0  0  0
  4  6  2  0  0  0  0
  6  7  1  0  0  0  0
  6  8  1  0  0  0  0
  8  9  1  0  0  0  0
  8 10  1  0  0  0  0
  8 11  1  0  0  0  0
 11 12  1  0  0  0  0
 11 13  1  0  0  0  0
 11 14  1  0  0  0  0
 14 15  1  0  0  0  0
 14 16  1  0  0  0  0
 14 17  1  0  0  0  0
M  END
> <VConfSearch Rank>
122

> <Conf_Id>
1

> <Delta U+W>
0.030

> <U+W>
-53.378

> <U>
9.048

> <W>
-62.426

> <W(PB)>
-64.506

> <W(SA)>
2.080

> <Valence>
2.652

> <Coulomb>
5.578

> <VdW>
0.818

> <VdW6>
-4.535

> <VdW12>
5.352

> <Bond>
0.063

> <Angle>
2.579

> <Pdih>
0.010

> <Idih>
0.000

> <Tether>
0.000

$$$$
VeraChem MOL file


 17 16  0  0  0  0  0  0  0  0999 V2000     
   22.7331   18.4708   20.7314 C   0  0  0  0  0  0  0  0  0  0  0  0
   22.8186   17.2776   20.9540 O   0  5  0  0  0  0  0  0  0  0  0  0
   23.4297   19.0412   19.9146 O   0  0  0  0  0  0  0  0  0  0  0  0
   21.7427   19.2896   21.4815 C   0  0  0  0  0  0  0  0  0  0  0  0
   21.7186   20.3486   21.2353 H   0  0  0  0  0  0  0  0  0  0  0  0
   20.9039   18.7881   22.4164 C   0  0  0  0  0  0  0  0  0  0  0  0
   20.9173   17.7280   22.6685 H   0  0  0  0  0  0  0  0  0  0  0  0
   19.8957   19.6271   23.1731 C   0  0  0  0  0  0  0  0  0  0  0  0
   20.3477   20.5910   23.4437 H   0  0  0  0  0  0  0  0  0  0  0  0
   19.6360   19.1343   24.1197 H   0  0  0  0  0  0  0  0  0  0  0  0
   18.6111   19.8824   22.3544 C   0  0  0  0  0  0  0  0  0  0  0  0
   17.9656   20.5789   22.9070 H   0  0  0  0  0  0  0  0  0  0  0  0
   18.8676   20.3766   21.4071 H   0  0  0  0  0  0  0  0  0  0  0  0
   17.8249   18.5853   22.0679 C   0  0  0  0  0  0  0  0  0  0  0  0
   17.5466   18.0803   23.0020 H   0  0  0  0  0  0  0  0  0  0  0  0
   16.9030   18.8071   21.5148 H   0  0  0  0  0  0  0  0  0  0  0  0
   18.4194   17.8869   21.4645 H   0  0  0  0  0  0  0  0  0  0  0  0
  1  2  1  0  0  0  0
  1  3  2  0  0  0  0
  1  4  1  0  0  0  0
  4  5  1  0  0  0  0
  4  6  2  0  0  0  0
  6  7  1  0  0  0  0
  6  8  1  0  0  0  0
  8  9  1  0  0  0  0
  8 10  1  0  0  0  0
  8 11  1  0  0  0  0
 11 12  1  0  0  0  0
 11 13  1  0  0  0  0
 11 14  1  0  0  0  0
 14 15  1  0  0  0  0
 14 16  1  0  0  0  0
 14 17  1  0  0  0  0
M  END
> <VConfSearch Rank>
123

> <Conf_Id>
3

> <Delta U+W>
0.531

> <U+W>
-52.878

> <U>
10.067

> <W>
-62.945

> <W(PB)>
-64.982

> <W(SA)>
2.037

> <Valence>
2.779

> <Coulomb>
6.474

> <VdW>
0.815

> <VdW6>
-5.088

> <VdW12>
5.902

> <Bond>
0.078

> <Angle>
2.651

> <Pdih>
0.050

> <Idih>
0.000

> <Tether>
0.000

$$$$
VeraChem MOL file


 17 16  0  0  0  0  0  0  0  0999 V2000     
   20.0657   16.6417   20.3245 C   0  0  0  0  0  0  0  0  0  0  0  0
   19.4837   16.4121   19.2823 O   0  5  0  0  0  0  0  0  0  0  0  0
   20.5217   15.7643   21.0334 O   0  0  0  0  0  0  0  0  0  0  0  0
   20.2172   18.0660   20.7278 C   0  0  0  0  0  0  0  0  0  0  0  0
   19.7870   18.7989   20.0493 H   0  0  0  0  0  0  0  0  0  0  0  0
   20.8388   18.4665   21.8604 C   0  0  0  0  0  0  0  0  0  0  0  0
   21.2695   17.7385   22.5476 H   0  0  0  0  0  0  0  0  0  0  0  0
   20.9890   19.9171   22.2696 C   0  0  0  0  0  0  0  0  0  0  0  0
   20.8157   20.5806   21.4115 H   0  0  0  0  0  0  0  0  0  0  0  0
   22.0250   20.0942   22.5880 H   0  0  0  0  0  0  0  0  0  0  0  0
   20.0377   20.3021   23.4237 C   0  0  0  0  0  0  0  0  0  0  0  0
   20.2086   19.6371   24.2816 H   0  0  0  0  0  0  0  0  0  0  0  0
   20.2783   21.3193   23.7623 H   0  0  0  0  0  0  0  0  0  0  0  0
   18.5512   20.2478   23.0113 C   0  0  0  0  0  0  0  0  0  0  0  0
   18.2559   19.2294   22.7269 H   0  0  0  0  0  0  0  0  0  0  0  0
   17.9081   20.5646   23.8425 H   0  0  0  0  0  0  0  0  0  0  0  0
   18.3557   20.9116   22.1591 H   0  0  0  0  0  0  0  0  0  0  0  0
  1  2  1  0  0  0  0
  1  3  2  0  0  0  0
  1  4  1  0  0  0  0
  4  5  1  0  0  0  0
  4  6  2  0  0  0  0
  6  7  1  0  0  0  0
  6  8  1  0  0  0  0
  8  9  1  0  0  0  0
  8 10  1  0  0  0  0
  8 11  1  0  0  0  0
 11 12  1  0  0  0  0
 11 13  1  0  0  0  0
 11 14  1  0  0  0  0
 14 15  1  0  0  0  0
 14 16  1  0  0  0  0
 14 17  1  0  0  0  0
M  END
> <VConfSearch Rank>
124

> <Conf_Id>
45

> <Delta U+W>
0.562

> <U+W>
-52.846

> <U>
10.243

> <W>
-63.089

> <W(PB)>
-65.116

> <W(SA)>
2.026

> <Valence>
2.822

> <Coulomb>
6.637

> <VdW>
0.785

> <VdW6>
-5.216

> <VdW12>
6.001

> <Bond>
0.080

> <Angle>
2.678

> <Pdih>
0.064

> <Idih>
0.000

> <Tether>
0.000

$$$$
VeraChem MOL file


 17 16  0  0  0  0  0  0  0  0999 V2000     
   18.7256   21.3282   19.7033 C   0  0  0  0  0  0  0  0  0  0  0  0
   17.8097   22.1154   19.8416 O   0  5  0  0  0  0  0  0  0  0  0  0
   19.2044   21.0558   18.6185 O   0  0  0  0  0  0  0  0  0  0  0  0
   19.2692   20.6835   20.9293 C   0  0  0  0  0  0  0  0  0  0  0  0
   18.7966   20.9708   21.8659 H   0  0  0  0  0  0  0  0  0  0  0  0
   20.2840   19.7896   20.9241 C   0  0  0  0  0  0  0  0  0  0  0  0
   20.7630   19.4930   19.9912 H   0  0  0  0  0  0  0  0  0  0  0  0
   20.8295   19.1369   22.1754 C   0  0  0  0  0  0  0  0  0  0  0  0
   20.8507   19.8633   22.9992 H   0  0  0  0  0  0  0  0  0  0  0  0
   21.8694   18.8271   22.0052 H   0  0  0  0  0  0  0  0  0  0  0  0
   19.9861   17.9116   22.5833 C   0  0  0  0  0  0  0  0  0  0  0  0
   18.9461   18.2206   22.7581 H   0  0  0  0  0  0  0  0  0  0  0  0
   19.9681   17.1857   21.7585 H   0  0  0  0  0  0  0  0  0  0  0  0
   20.5412   17.2348   23.8527 C   0  0  0  0  0  0  0  0  0  0  0  0
   21.5706   16.8873   23.6947 H   0  0  0  0  0  0  0  0  0  0  0  0
   20.5408   17.9314   24.7014 H   0  0  0  0  0  0  0  0  0  0  0  0
   19.9287   16.3661   24.1272 H   0  0  0  0  0  0  0  0  0  0  0  0
  1  2  1  0  0  0  0
  1  3  2  0  0  0  0
  1  4  1  0  0  0  0
  4  5  1  0  0  0  0
  4  6  2  0  0  0  0
  6  7  1  0  0  0  0
  6  8  1  0  0  0  0
  8  9  1  0  0  0  0
  8 10  1  0  0  0  0
  8 11  1  0  0  0  0
 11 12  1  0  0  0  0
 11 13  1  0  0  0  0
 11 14  1  0  0  0  0
 14 15  1  0  0  0  0
 14 16  1  0  0  0  0
 14 17  1  0  0  0  0
M  END
> <VConfSearch Rank>
125

> <Conf_Id>
36

> <Delta U+W>
0.000

> <U+W>
-53.409

> <U>
9.048

> <W>
-62.457

> <W(PB)>
-64.540

> <W(SA)>
2.084

> <Valence>
2.652

> <Coulomb>
5.578

> <VdW>
0.818

> <VdW6>
-4.534

> <VdW12>
5.352

> <Bond>
0.063

> <Angle>
2.579

> <Pdih>
0.010

> <Idih>
0.000

> <Tether>
0.000

$$$$
VeraChem MOL file


 17 16  0  0  0  0  0  0  0  0999 V2000     
   19.6026   16.0566   20.5040 C   0  0  0  0  0  0  0  0  0  0  0  0
   19.0173   15.3667   21.3175 O   0  5  0  0  0  0  0  0  0  0  0  0
   20.1020   15.6041   19.4924 O   0  0  0  0  0  0  0  0  0  0  0  0
   19.7243   17.5216   20.7349 C   0  0  0  0  0  0  0  0  0  0  0  0
   20.2589   18.0798   19.9697 H   0  0  0  0  0  0  0  0  0  0  0  0
   19.2188   18.1589   21.8153 C   0  0  0  0  0  0  0  0  0  0  0  0
   18.6833   17.6090   22.5890 H   0  0  0  0  0  0  0  0  0  0  0  0
   19.3486   19.6490   22.0435 C   0  0  0  0  0  0  0  0  0  0  0  0
   18.5323   19.9942   22.6922 H   0  0  0  0  0  0  0  0  0  0  0  0
   19.2391   20.1856   21.0912 H   0  0  0  0  0  0  0  0  0  0  0  0
   20.7046   20.0029   22.6875 C   0  0  0  0  0  0  0  0  0  0  0  0
   20.8108   19.4667   23.6408 H   0  0  0  0  0  0  0  0  0  0  0  0
   21.5225   19.6618   22.0376 H   0  0  0  0  0  0  0  0  0  0  0  0
   20.8410   21.5192   22.9318 C   0  0  0  0  0  0  0  0  0  0  0  0
   20.0529   21.8812   23.6051 H   0  0  0  0  0  0  0  0  0  0  0  0
   21.8111   21.7514   23.3901 H   0  0  0  0  0  0  0  0  0  0  0  0
   20.7695   22.0770   21.9889 H   0  0  0  0  0  0  0  0  0  0  0  0
  1  2  1  0  0  0  0
  1  3  2  0  0  0  0
  1  4  1  0  0  0  0
  4  5  1  0  0  0  0
  4  6  2  0  0  0  0
  6  7  1  0  0  0  0
  6  8  1  0  0  0  0
  8  9  1  0  0  0  0
  8 10  1  0  0  0  0
  8 11  1  0  0  0  0
 11 12  1  0  0  0  0
 11 13  1  0  0  0  0
 11 14  1  0  0  0  0
 14 15  1  0  0  0  0
 14 16  1  0  0  0  0
 14 17  1  0  0  0  0
M  END
> <VConfSearch Rank>
126

> <Conf_Id>
1

> <Delta U+W>
0.030

> <U+W>
-53.378

> <U>
9.048

> <W>
-62.426

> <W(PB)>
-64.506

> <W(SA)>
2.080

> <Valence>
2.652

> <Coulomb>
5.578

> <VdW>
0.818

> <VdW6>
-4.535

> <VdW12>
5.352

> <Bond>
0.063

> <Angle>
2.579

> <Pdih>
0.010

> <Idih>
0.000

> <Tether>
0.000

$$$$
VeraChem MOL file


 17 16  0  0  0  0  0  0  0  0999 V2000     
   18.3623   19.8624   24.5330 C   0  0  0  0  0  0  0  0  0  0  0  0
   18.8029   19.0710   25.3454 O   0  5  0  0  0  0  0  0  0  0  0  0
   17.7126   20.8399   24.8495 O   0  0  0  0  0  0  0  0  0  0  0  0
   18.6135   19.6441   23.0827 C   0  0  0  0  0  0  0  0  0  0  0  0
   18.1914   20.3877   22.4107 H   0  0  0  0  0  0  0  0  0  0  0  0
   19.3199   18.6020   22.5887 C   0  0  0  0  0  0  0  0  0  0  0  0
   19.7501   17.8531   23.2533 H   0  0  0  0  0  0  0  0  0  0  0  0
   19.5747   18.3885   21.1114 C   0  0  0  0  0  0  0  0  0  0  0  0
   18.6658   18.6269   20.5426 H   0  0  0  0  0  0  0  0  0  0  0  0
   19.7869   17.3282   20.9191 H   0  0  0  0  0  0  0  0  0  0  0  0
   20.7421   19.2523   20.5856 C   0  0  0  0  0  0  0  0  0  0  0  0
   20.8119   19.1365   19.4952 H   0  0  0  0  0  0  0  0  0  0  0  0
   20.5321   20.3141   20.7755 H   0  0  0  0  0  0  0  0  0  0  0  0
   22.0952   18.8682   21.2214 C   0  0  0  0  0  0  0  0  0  0  0  0
   22.3321   17.8130   21.0331 H   0  0  0  0  0  0  0  0  0  0  0  0
   22.9058   19.4777   20.8013 H   0  0  0  0  0  0  0  0  0  0  0  0
   22.0822   19.0283   22.3074 H   0  0  0  0  0  0  0  0  0  0  0  0
  1  2  1  0  0  0  0
  1  3  2  0  0  0  0
  1  4  1  0  0  0  0
  4  5  1  0  0  0  0
  4  6  2  0  0  0  0
  6  7  1  0  0  0  0
  6  8  1  0  0  0  0
  8  9  1  0  0  0  0
  8 10  1  0  0  0  0
  8 11  1  0  0  0  0
 11 12  1  0  0  0  0
 11 13  1  0  0  0  0
 11 14  1  0  0  0  0
 14 15  1  0  0  0  0
 14 16  1  0  0  0  0
 14 17  1  0  0  0  0
M  END
> <VConfSearch Rank>
127

> <Conf_Id>
3

> <Delta U+W>
0.531

> <U+W>
-52.878

> <U>
10.067

> <W>
-62.945

> <W(PB)>
-64.982

> <W(SA)>
2.037

> <Valence>
2.779

> <Coulomb>
6.474

> <VdW>
0.815

> <VdW6>
-5.088

> <VdW12>
5.902

> <Bond>
0.078

> <Angle>
2.651

> <Pdih>
0.050

> <Idih>
0.000

> <Tether>
0.000

$$$$
VeraChem MOL file


 17 16  0  0  0  0  0  0  0  0999 V2000     
   22.2583   19.6058   20.1641 C   0  0  0  0  0  0  0  0  0  0  0  0
   23.4146   19.8991   20.3981 O   0  5  0  0  0  0  0  0  0  0  0  0
   21.7290   19.8136   19.0884 O   0  0  0  0  0  0  0  0  0  0  0  0
   21.4779   18.9628   21.2557 C   0  0  0  0  0  0  0  0  0  0  0  0
   22.0110   18.8061   22.1905 H   0  0  0  0  0  0  0  0  0  0  0  0
   20.1841   18.5865   21.1363 C   0  0  0  0  0  0  0  0  0  0  0  0
   19.6414   18.7432   20.2044 H   0  0  0  0  0  0  0  0  0  0  0  0
   19.3914   17.9347   22.2503 C   0  0  0  0  0  0  0  0  0  0  0  0
   20.0645   17.5387   23.0230 H   0  0  0  0  0  0  0  0  0  0  0  0
   18.8491   17.0698   21.8456 H   0  0  0  0  0  0  0  0  0  0  0  0
   18.3772   18.9055   22.8937 C   0  0  0  0  0  0  0  0  0  0  0  0
   17.7052   19.3041   22.1211 H   0  0  0  0  0  0  0  0  0  0  0  0
   17.7470   18.3488   23.6009 H   0  0  0  0  0  0  0  0  0  0  0  0
   19.0615   20.0709   23.6397 C   0  0  0  0  0  0  0  0  0  0  0  0
   19.6509   20.6903   22.9513 H   0  0  0  0  0  0  0  0  0  0  0  0
   18.3128   20.7169   24.1161 H   0  0  0  0  0  0  0  0  0  0  0  0
   19.7330   19.6952   24.4227 H   0  0  0  0  0  0  0  0  0  0  0  0
  1  2  1  0  0  0  0
  1  3  2  0  0  0  0
  1  4  1  0  0  0  0
  4  5  1  0  0  0  0
  4  6  2  0  0  0  0
  6  7  1  0  0  0  0
  6  8  1  0  0  0  0
  8  9  1  0  0  0  0
  8 10  1  0  0  0  0
  8 11  1  0  0  0  0
 11 12  1  0  0  0  0
 11 13  1  0  0  0  0
 11 14  1  0  0  0  0
 14 15  1  0  0  0  0
 14 16  1  0  0  0  0
 14 17  1  0  0  0  0
M  END
> <VConfSearch Rank>
128

> <Conf_Id>
45

> <Delta U+W>
0.562

> <U+W>
-52.846

> <U>
10.243

> <W>
-63.089

> <W(PB)>
-65.116

> <W(SA)>
2.026

> <Valence>
2.822

> <Coulomb>
6.637

> <VdW>
0.785

> <VdW6>
-5.216

> <VdW12>
6.001

> <Bond>
0.080

> <Angle>
2.678

> <Pdih>
0.064

> <Idih>
0.000

> <Tether>
0.000

$$$$
VeraChem MOL file


 17 16  0  0  0  0  0  0  0  0999 V2000     
   19.0656   19.6386   25.1145 C   0  0  0  0  0  0  0  0  0  0  0  0
   18.2231   19.0626   25.7749 O   0  5  0  0  0  0  0  0  0  0  0  0
   19.5746   20.6875   25.4626 O   0  0  0  0  0  0  0  0  0  0  0  0
   19.4772   19.0132   23.8286 C   0  0  0  0  0  0  0  0  0  0  0  0
   18.9840   18.0771   23.5768 H   0  0  0  0  0  0  0  0  0  0  0  0
   20.4006   19.5428   22.9943 C   0  0  0  0  0  0  0  0  0  0  0  0
   20.8991   20.4814   23.2357 H   0  0  0  0  0  0  0  0  0  0  0  0
   20.8119   18.9014   21.6872 C   0  0  0  0  0  0  0  0  0  0  0  0
   20.8576   17.8099   21.8024 H   0  0  0  0  0  0  0  0  0  0  0  0
   21.8251   19.2300   21.4191 H   0  0  0  0  0  0  0  0  0  0  0  0
   19.8341   19.2644   20.5510 C   0  0  0  0  0  0  0  0  0  0  0  0
   18.8205   18.9326   20.8158 H   0  0  0  0  0  0  0  0  0  0  0  0
   19.7917   20.3565   20.4363 H   0  0  0  0  0  0  0  0  0  0  0  0
   20.2517   18.6221   19.2128 C   0  0  0  0  0  0  0  0  0  0  0  0
   21.2502   18.9623   18.9083 H   0  0  0  0  0  0  0  0  0  0  0  0
   20.2718   17.5272   19.2920 H   0  0  0  0  0  0  0  0  0  0  0  0
   19.5448   18.8913   18.4173 H   0  0  0  0  0  0  0  0  0  0  0  0
  1  2  1  0  0  0  0
  1  3  2  0  0  0  0
  1  4  1  0  0  0  0
  4  5  1  0  0  0  0
  4  6  2  0  0  0  0
  6  7  1  0  0  0  0
  6  8  1  0  0  0  0
  8  9  1  0  0  0  0
  8 10  1  0  0  0  0
  8 11  1  0  0  0  0
 11 12  1  0  0  0  0
 11 13  1  0  0  0  0
 11 14  1  0  0  0  0
 14 15  1  0  0  0  0
 14 16  1  0  0  0  0
 14 17  1  0  0  0  0
M  END
> <VConfSearch Rank>
129

> <Conf_Id>
36

> <Delta U+W>
0.000

> <U+W>
-53.409

> <U>
9.048

> <W>
-62.457

> <W(PB)>
-64.540

> <W(SA)>
2.084

> <Valence>
2.652

> <Coulomb>
5.578

> <VdW>
0.818

> <VdW6>
-4.534

> <VdW12>
5.352

> <Bond>
0.063

> <Angle>
2.579

> <Pdih>
0.010

> <Idih>
0.000

> <Tether>
0.000

$$$$
VeraChem MOL file


 17 16  0  0  0  0  0  0  0  0999 V2000     
   20.3216   18.5498   18.5989 C   0  0  0  0  0  0  0  0  0  0  0  0
   21.3099   17.8569   18.4454 O   0  5  0  0  0  0  0  0  0  0  0  0
   19.7395   19.0832   17.6746 O   0  0  0  0  0  0  0  0  0  0  0  0
   19.7821   18.7674   19.9685 C   0  0  0  0  0  0  0  0  0  0  0  0
   18.8973   19.3963   20.0357 H   0  0  0  0  0  0  0  0  0  0  0  0
   20.3279   18.2373   21.0866 C   0  0  0  0  0  0  0  0  0  0  0  0
   21.2156   17.6075   21.0310 H   0  0  0  0  0  0  0  0  0  0  0  0
   19.7740   18.4651   22.4760 C   0  0  0  0  0  0  0  0  0  0  0  0
   20.0694   17.6339   23.1306 H   0  0  0  0  0  0  0  0  0  0  0  0
   18.6759   18.4650   22.4473 H   0  0  0  0  0  0  0  0  0  0  0  0
   20.2791   19.7953   23.0712 C   0  0  0  0  0  0  0  0  0  0  0  0
   21.3776   19.7921   23.1010 H   0  0  0  0  0  0  0  0  0  0  0  0
   19.9808   20.6284   22.4196 H   0  0  0  0  0  0  0  0  0  0  0  0
   19.7264   20.0305   24.4913 C   0  0  0  0  0  0  0  0  0  0  0  0
   20.0369   19.2270   25.1720 H   0  0  0  0  0  0  0  0  0  0  0  0
   20.0963   20.9808   24.8979 H   0  0  0  0  0  0  0  0  0  0  0  0
   18.6291   20.0692   24.4843 H   0  0  0  0  0  0  0  0  0  0  0  0
  1  2  1  0  0  0  0
  1  3  2  0  0  0  0
  1  4  1  0  0  0  0
  4  5  1  0  0  0  0
  4  6  2  0  0  0  0
  6  7  1  0  0  0  0
  6  8  1  0  0  0  0
  8  9  1  0  0  0  0
  8 10  1  0  0  0  0
  8 11  1  0  0  0  0
 11 12  1  0  0  0  0
 11 13  1  0  0  0  0
 11 14  1  0  0  0  0
 14 15  1  0  0  0  0
 14 16  1  0  0  0  0
 14 17  1  0  0  0  0
M  END
> <VConfSearch Rank>
130

> <Conf_Id>
1

> <Delta U+W>
0.030

> <U+W>
-53.378

> <U>
9.048

> <W>
-62.426

> <W(PB)>
-64.506

> <W(SA)>
2.080

> <Valence>
2.652

> <Coulomb>
5.578

> <VdW>
0.818

> <VdW6>
-4.535

> <VdW12>
5.352

> <Bond>
0.063

> <Angle>
2.579

> <Pdih>
0.010

> <Idih>
0.000

> <Tether>
0.000

$$$$
VeraChem MOL file


 17 16  0  0  0  0  0  0  0  0999 V2000     
   20.1476   19.2295   18.9742 C   0  0  0  0  0  0  0  0  0  0  0  0
   20.1674   18.0440   18.7010 O   0  5  0  0  0  0  0  0  0  0  0  0
   19.9046   20.0920   18.1526 O   0  0  0  0  0  0  0  0  0  0  0  0
   20.4333   19.6681   20.3670 C   0  0  0  0  0  0  0  0  0  0  0  0
   20.4003   20.7407   20.5432 H   0  0  0  0  0  0  0  0  0  0  0  0
   20.7174   18.8195   21.3810 C   0  0  0  0  0  0  0  0  0  0  0  0
   20.7499   17.7427   21.2164 H   0  0  0  0  0  0  0  0  0  0  0  0
   21.0034   19.2730   22.7972 C   0  0  0  0  0  0  0  0  0  0  0  0
   21.6297   20.1752   22.7756 H   0  0  0  0  0  0  0  0  0  0  0  0
   21.5886   18.5067   23.3231 H   0  0  0  0  0  0  0  0  0  0  0  0
   19.7124   19.5717   23.5906 C   0  0  0  0  0  0  0  0  0  0  0  0
   19.9814   19.9948   24.5682 H   0  0  0  0  0  0  0  0  0  0  0  0
   19.1253   20.3392   23.0674 H   0  0  0  0  0  0  0  0  0  0  0  0
   18.8464   18.3124   23.8070 C   0  0  0  0  0  0  0  0  0  0  0  0
   19.4095   17.5354   24.3401 H   0  0  0  0  0  0  0  0  0  0  0  0
   17.9559   18.5540   24.4016 H   0  0  0  0  0  0  0  0  0  0  0  0
   18.5084   17.8949   22.8495 H   0  0  0  0  0  0  0  0  0  0  0  0
  1  2  1  0  0  0  0
  1  3  2  0  0  0  0
  1  4  1  0  0  0  0
  4  5  1  0  0  0  0
  4  6  2  0  0  0  0
  6  7  1  0  0  0  0
  6  8  1  0  0  0  0
  8  9  1  0  0  0  0
  8 10  1  0  0  0  0
  8 11  1  0  0  0  0
 11 12  1  0  0  0  0
 11 13  1  0  0  0  0
 11 14  1  0  0  0  0
 14 15  1  0  0  0  0
 14 16  1  0  0  0  0
 14 17  1  0  0  0  0
M  END
> <VConfSearch Rank>
131

> <Conf_Id>
3

> <Delta U+W>
0.531

> <U+W>
-52.878

> <U>
10.067

> <W>
-62.945

> <W(PB)>
-64.982

> <W(SA)>
2.037

> <Valence>
2.779

> <Coulomb>
6.474

> <VdW>
0.815

> <VdW6>
-5.088

> <VdW12>
5.902

> <Bond>
0.078

> <Angle>
2.651

> <Pdih>
0.050

> <Idih>
0.000

> <Tether>
0.000

$$$$
VeraChem MOL file


 17 16  0  0  0  0  0  0  0  0999 V2000     
   20.2637   16.1001   22.2751 C   0  0  0  0  0  0  0  0  0  0  0  0
   19.6230   15.3025   22.9317 O   0  5  0  0  0  0  0  0  0  0  0  0
   21.3771   15.8598   21.8470 O   0  0  0  0  0  0  0  0  0  0  0  0
   19.6364   17.4196   21.9931 C   0  0  0  0  0  0  0  0  0  0  0  0
   18.6409   17.5686   22.4048 H   0  0  0  0  0  0  0  0  0  0  0  0
   20.2339   18.4008   21.2791 C   0  0  0  0  0  0  0  0  0  0  0  0
   21.2326   18.2611   20.8662 H   0  0  0  0  0  0  0  0  0  0  0  0
   19.5938   19.7441   20.9960 C   0  0  0  0  0  0  0  0  0  0  0  0
   18.5096   19.6994   21.1675 H   0  0  0  0  0  0  0  0  0  0  0  0
   19.7249   19.9868   19.9331 H   0  0  0  0  0  0  0  0  0  0  0  0
   20.2075   20.8769   21.8477 C   0  0  0  0  0  0  0  0  0  0  0  0
   21.2924   20.9207   21.6788 H   0  0  0  0  0  0  0  0  0  0  0  0
   19.7985   21.8398   21.5117 H   0  0  0  0  0  0  0  0  0  0  0  0
   19.9220   20.7079   23.3553 C   0  0  0  0  0  0  0  0  0  0  0  0
   20.3723   19.7848   23.7427 H   0  0  0  0  0  0  0  0  0  0  0  0
   20.3384   21.5495   23.9238 H   0  0  0  0  0  0  0  0  0  0  0  0
   18.8420   20.6694   23.5483 H   0  0  0  0  0  0  0  0  0  0  0  0
  1  2  1  0  0  0  0
  1  3  2  0  0  0  0
  1  4  1  0  0  0  0
  4  5  1  0  0  0  0
  4  6  2  0  0  0  0
  6  7  1  0  0  0  0
  6  8  1  0  0  0  0
  8  9  1  0  0  0  0
  8 10  1  0  0  0  0
  8 11  1  0  0  0  0
 11 12  1  0  0  0  0
 11 13  1  0  0  0  0
 11 14  1  0  0  0  0
 14 15  1  0  0  0  0
 14 16  1  0  0  0  0
 14 17  1  0  0  0  0
M  END
> <VConfSearch Rank>
132

> <Conf_Id>
45

> <Delta U+W>
0.562

> <U+W>
-52.846

> <U>
10.243

> <W>
-63.089

> <W(PB)>
-65.116

> <W(SA)>
2.026

> <Valence>
2.822

> <Coulomb>
6.637

> <VdW>
0.785

> <VdW6>
-5.216

> <VdW12>
6.001

> <Bond>
0.080

> <Angle>
2.678

> <Pdih>
0.064

> <Idih>
0.000

> <Tether>
0.000

$$$$
VeraChem MOL file


 17 16  0  0  0  0  0  0  0  0999 V2000     
   21.7673   18.5140   19.1089 C   0  0  0  0  0  0  0  0  0  0  0  0
   22.1981   17.4602   18.6828 O   0  5  0  0  0  0  0  0  0  0  0  0
   22.1176   19.5950   18.6740 O   0  0  0  0  0  0  0  0  0  0  0  0
   20.7678   18.4536   20.2096 C   0  0  0  0  0  0  0  0  0  0  0  0
   20.4984   17.4569   20.5517 H   0  0  0  0  0  0  0  0  0  0  0  0
   20.2067   19.5445   20.7790 C   0  0  0  0  0  0  0  0  0  0  0  0
   20.4713   20.5477   20.4455 H   0  0  0  0  0  0  0  0  0  0  0  0
   19.1925   19.4743   21.8995 C   0  0  0  0  0  0  0  0  0  0  0  0
   18.5100   18.6291   21.7360 H   0  0  0  0  0  0  0  0  0  0  0  0
   18.5735   20.3816   21.8927 H   0  0  0  0  0  0  0  0  0  0  0  0
   19.8809   19.3294   23.2722 C   0  0  0  0  0  0  0  0  0  0  0  0
   20.4973   18.4197   23.2821 H   0  0  0  0  0  0  0  0  0  0  0  0
   20.5614   20.1768   23.4343 H   0  0  0  0  0  0  0  0  0  0  0  0
   18.8541   19.2666   24.4208 C   0  0  0  0  0  0  0  0  0  0  0  0
   18.2447   20.1794   24.4535 H   0  0  0  0  0  0  0  0  0  0  0  0
   18.1801   18.4085   24.2988 H   0  0  0  0  0  0  0  0  0  0  0  0
   19.3621   19.1636   25.3885 H   0  0  0  0  0  0  0  0  0  0  0  0
  1  2  1  0  0  0  0
  1  3  2  0  0  0  0
  1  4  1  0  0  0  0
  4  5  1  0  0  0  0
  4  6  2  0  0  0  0
  6  7  1  0  0  0  0
  6  8  1  0  0  0  0
  8  9  1  0  0  0  0
  8 10  1  0  0  0  0
  8 11  1  0  0  0  0
 11 12  1  0  0  0  0
 11 13  1  0  0  0  0
 11 14  1  0  0  0  0
 14 15  1  0  0  0  0
 14 16  1  0  0  0  0
 14 17  1  0  0  0  0
M  END
> <VConfSearch Rank>
133

> <Conf_Id>
36

> <Delta U+W>
0.000

> <U+W>
-53.409

> <U>
9.048

> <W>
-62.457

> <W(PB)>
-64.540

> <W(SA)>
2.084

> <Valence>
2.652

> <Coulomb>
5.578

> <VdW>
0.818

> <VdW6>
-4.534

> <VdW12>
5.352

> <Bond>
0.063

> <Angle>
2.579

> <Pdih>
0.010

> <Idih>
0.000

> <Tether>
0.000

$$$$
VeraChem MOL file


 17 16  0  0  0  0  0  0  0  0999 V2000     
   20.9115   22.3392   21.7227 C   0  0  0  0  0  0  0  0  0  0  0  0
   19.8901   22.9779   21.5523 O   0  5  0  0  0  0  0  0  0  0  0  0
   22.0201   22.8256   21.6136 O   0  0  0  0  0  0  0  0  0  0  0  0
   20.8255   20.8979   22.0827 C   0  0  0  0  0  0  0  0  0  0  0  0
   21.7750   20.3858   22.2209 H   0  0  0  0  0  0  0  0  0  0  0  0
   19.6610   20.2275   22.2361 C   0  0  0  0  0  0  0  0  0  0  0  0
   18.7040   20.7303   22.0979 H   0  0  0  0  0  0  0  0  0  0  0  0
   19.5823   18.7611   22.6006 C   0  0  0  0  0  0  0  0  0  0  0  0
   18.6204   18.5546   23.0888 H   0  0  0  0  0  0  0  0  0  0  0  0
   20.3636   18.5135   23.3321 H   0  0  0  0  0  0  0  0  0  0  0  0
   19.7322   17.8638   21.3551 C   0  0  0  0  0  0  0  0  0  0  0  0
   18.9484   18.1118   20.6259 H   0  0  0  0  0  0  0  0  0  0  0  0
   20.6960   18.0663   20.8676 H   0  0  0  0  0  0  0  0  0  0  0  0
   19.6439   16.3675   21.7169 C   0  0  0  0  0  0  0  0  0  0  0  0
   18.6758   16.1311   22.1778 H   0  0  0  0  0  0  0  0  0  0  0  0
   19.7525   15.7454   20.8189 H   0  0  0  0  0  0  0  0  0  0  0  0
   20.4372   16.0863   22.4219 H   0  0  0  0  0  0  0  0  0  0  0  0
  1  2  1  0  0  0  0
  1  3  2  0  0  0  0
  1  4  1  0  0  0  0
  4  5  1  0  0  0  0
  4  6  2  0  0  0  0
  6  7  1  0  0  0  0
  6  8  1  0  0  0  0
  8  9  1  0  0  0  0
  8 10  1  0  0  0  0
  8 11  1  0  0  0  0
 11 12  1  0  0  0  0
 11 13  1  0  0  0  0
 11 14  1  0  0  0  0
 14 15  1  0  0  0  0
 14 16  1  0  0  0  0
 14 17  1  0  0  0  0
M  END
> <VConfSearch Rank>
134

> <Conf_Id>
1

> <Delta U+W>
0.030

> <U+W>
-53.378

> <U>
9.048

> <W>
-62.426

> <W(PB)>
-64.506

> <W(SA)>
2.080

> <Valence>
2.652

> <Coulomb>
5.578

> <VdW>
0.818

> <VdW6>
-4.535

> <VdW12>
5.352

> <Bond>
0.063

> <Angle>
2.579

> <Pdih>
0.010

> <Idih>
0.000

> <Tether>
0.000

$$$$
VeraChem MOL file


 17 16  0  0  0  0  0  0  0  0999 V2000     
   22.4561   19.5465   20.2232 C   0  0  0  0  0  0  0  0  0  0  0  0
   23.3610   19.3418   21.0105 O   0  5  0  0  0  0  0  0  0  0  0  0
   22.6224   19.5731   19.0193 O   0  0  0  0  0  0  0  0  0  0  0  0
   21.0776   19.7807   20.7320 C   0  0  0  0  0  0  0  0  0  0  0  0
   20.3163   19.9582   19.9759 H   0  0  0  0  0  0  0  0  0  0  0  0
   20.7477   19.7782   22.0436 C   0  0  0  0  0  0  0  0  0  0  0  0
   21.5019   19.5981   22.8093 H   0  0  0  0  0  0  0  0  0  0  0  0
   19.3416   20.0136   22.5538 C   0  0  0  0  0  0  0  0  0  0  0  0
   18.8679   20.8155   21.9714 H   0  0  0  0  0  0  0  0  0  0  0  0
   19.3763   20.3690   23.5924 H   0  0  0  0  0  0  0  0  0  0  0  0
   18.4664   18.7436   22.4717 C   0  0  0  0  0  0  0  0  0  0  0  0
   17.4356   18.9989   22.7533 H   0  0  0  0  0  0  0  0  0  0  0  0
   18.4287   18.3862   21.4333 H   0  0  0  0  0  0  0  0  0  0  0  0
   18.9757   17.6139   23.3921 C   0  0  0  0  0  0  0  0  0  0  0  0
   19.0097   17.9450   24.4382 H   0  0  0  0  0  0  0  0  0  0  0  0
   18.3129   16.7408   23.3343 H   0  0  0  0  0  0  0  0  0  0  0  0
   19.9838   17.2906   23.1017 H   0  0  0  0  0  0  0  0  0  0  0  0
  1  2  1  0  0  0  0
  1  3  2  0  0  0  0
  1  4  1  0  0  0  0
  4  5  1  0  0  0  0
  4  6  2  0  0  0  0
  6  7  1  0  0  0  0
  6  8  1  0  0  0  0
  8  9  1  0  0  0  0
  8 10  1  0  0  0  0
  8 11  1  0  0  0  0
 11 12  1  0  0  0  0
 11 13  1  0  0  0  0
 11 14  1  0  0  0  0
 14 15  1  0  0  0  0
 14 16  1  0  0  0  0
 14 17  1  0  0  0  0
M  END
> <VConfSearch Rank>
135

> <Conf_Id>
3

> <Delta U+W>
0.531

> <U+W>
-52.878

> <U>
10.067

> <W>
-62.945

> <W(PB)>
-64.982

> <W(SA)>
2.037

> <Valence>
2.779

> <Coulomb>
6.474

> <VdW>
0.815

> <VdW6>
-5.088

> <VdW12>
5.902

> <Bond>
0.078

> <Angle>
2.651

> <Pdih>
0.050

> <Idih>
0.000

> <Tether>
0.000

$$$$
VeraChem MOL file


 17 16  0  0  0  0  0  0  0  0999 V2000     
   18.0203   18.9806   19.7798 C   0  0  0  0  0  0  0  0  0  0  0  0
   17.4182   19.8809   19.2278 O   0  5  0  0  0  0  0  0  0  0  0  0
   17.6630   17.8186   19.7285 O   0  0  0  0  0  0  0  0  0  0  0  0
   19.2463   19.3400   20.5425 C   0  0  0  0  0  0  0  0  0  0  0  0
   19.5089   20.3953   20.5475 H   0  0  0  0  0  0  0  0  0  0  0  0
   20.0111   18.4431   21.2059 C   0  0  0  0  0  0  0  0  0  0  0  0
   19.7531   17.3843   21.2091 H   0  0  0  0  0  0  0  0  0  0  0  0
   21.2572   18.8124   21.9838 C   0  0  0  0  0  0  0  0  0  0  0  0
   21.6163   19.8077   21.6885 H   0  0  0  0  0  0  0  0  0  0  0  0
   22.0611   18.1095   21.7277 H   0  0  0  0  0  0  0  0  0  0  0  0
   21.0274   18.7757   23.5106 C   0  0  0  0  0  0  0  0  0  0  0  0
   20.6657   17.7812   23.8065 H   0  0  0  0  0  0  0  0  0  0  0  0
   21.9887   18.9248   24.0214 H   0  0  0  0  0  0  0  0  0  0  0  0
   20.0319   19.8547   23.9875 C   0  0  0  0  0  0  0  0  0  0  0  0
   19.0386   19.6999   23.5465 H   0  0  0  0  0  0  0  0  0  0  0  0
   19.9235   19.8244   25.0794 H   0  0  0  0  0  0  0  0  0  0  0  0
   20.3777   20.8586   23.7088 H   0  0  0  0  0  0  0  0  0  0  0  0
  1  2  1  0  0  0  0
  1  3  2  0  0  0  0
  1  4  1  0  0  0  0
  4  5  1  0  0  0  0
  4  6  2  0  0  0  0
  6  7  1  0  0  0  0
  6  8  1  0  0  0  0
  8  9  1  0  0  0  0
  8 10  1  0  0  0  0
  8 11  1  0  0  0  0
 11 12  1  0  0  0  0
 11 13  1  0  0  0  0
 11 14  1  0  0  0  0
 14 15  1  0  0  0  0
 14 16  1  0  0  0  0
 14 17  1  0  0  0  0
M  END
> <VConfSearch Rank>
136

> <Conf_Id>
45

> <Delta U+W>
0.562

> <U+W>
-52.846

> <U>
10.243

> <W>
-63.089

> <W(PB)>
-65.116

> <W(SA)>
2.026

> <Valence>
2.822

> <Coulomb>
6.637

> <VdW>
0.785

> <VdW6>
-5.216

> <VdW12>
6.001

> <Bond>
0.080

> <Angle>
2.678

> <Pdih>
0.064

> <Idih>
0.000

> <Tether>
0.000

$$$$
VeraChem MOL file


 17 16  0  0  0  0  0  0  0  0999 V2000     
   22.7040   21.1249   21.8965 C   0  0  0  0  0  0  0  0  0  0  0  0
   22.8802   22.1750   21.3100 O   0  5  0  0  0  0  0  0  0  0  0  0
   23.6080   20.5007   22.4196 O   0  0  0  0  0  0  0  0  0  0  0  0
   21.3131   20.6009   21.9654 C   0  0  0  0  0  0  0  0  0  0  0  0
   20.5529   21.2069   21.4778 H   0  0  0  0  0  0  0  0  0  0  0  0
   20.9721   19.4470   22.5830 C   0  0  0  0  0  0  0  0  0  0  0  0
   21.7261   18.8309   23.0726 H   0  0  0  0  0  0  0  0  0  0  0  0
   19.5552   18.9200   22.6467 C   0  0  0  0  0  0  0  0  0  0  0  0
   18.8512   19.7514   22.7878 H   0  0  0  0  0  0  0  0  0  0  0  0
   19.4452   18.2655   23.5218 H   0  0  0  0  0  0  0  0  0  0  0  0
   19.1884   18.1386   21.3684 C   0  0  0  0  0  0  0  0  0  0  0  0
   19.2939   18.7933   20.4922 H   0  0  0  0  0  0  0  0  0  0  0  0
   19.8926   17.3064   21.2306 H   0  0  0  0  0  0  0  0  0  0  0  0
   17.7487   17.5899   21.4294 C   0  0  0  0  0  0  0  0  0  0  0  0
   17.6243   16.9063   22.2795 H   0  0  0  0  0  0  0  0  0  0  0  0
   17.0216   18.4057   21.5361 H   0  0  0  0  0  0  0  0  0  0  0  0
   17.5061   17.0377   20.5122 H   0  0  0  0  0  0  0  0  0  0  0  0
  1  2  1  0  0  0  0
  1  3  2  0  0  0  0
  1  4  1  0  0  0  0
  4  5  1  0  0  0  0
  4  6  2  0  0  0  0
  6  7  1  0  0  0  0
  6  8  1  0  0  0  0
  8  9  1  0  0  0  0
  8 10  1  0  0  0  0
  8 11  1  0  0  0  0
 11 12  1  0  0  0  0
 11 13  1  0  0  0  0
 11 14  1  0  0  0  0
 14 15  1  0  0  0  0
 14 16  1  0  0  0  0
 14 17  1  0  0  0  0
M  END
> <VConfSearch Rank>
137

> <Conf_Id>
36

> <Delta U+W>
0.000

> <U+W>
-53.409

> <U>
9.048

> <W>
-62.457

> <W(PB)>
-64.540

> <W(SA)>
2.084

> <Valence>
2.652

> <Coulomb>
5.578

> <VdW>
0.818

> <VdW6>
-4.534

> <VdW12>
5.352

> <Bond>
0.063

> <Angle>
2.579

> <Pdih>
0.010

> <Idih>
0.000

> <Tether>
0.000

$$$$
VeraChem MOL file


 17 16  0  0  0  0  0  0  0  0999 V2000     
   22.5504   20.9220   20.6484 C   0  0  0  0  0  0  0  0  0  0  0  0
   22.7440   20.5205   19.5163 O   0  5  0  0  0  0  0  0  0  0  0  0
   23.3079   21.6837   21.2172 O   0  0  0  0  0  0  0  0  0  0  0  0
   21.3392   20.4763   21.3891 C   0  0  0  0  0  0  0  0  0  0  0  0
   21.2261   20.8721   22.3958 H   0  0  0  0  0  0  0  0  0  0  0  0
   20.4134   19.6314   20.8811 C   0  0  0  0  0  0  0  0  0  0  0  0
   20.5180   19.2272   19.8744 H   0  0  0  0  0  0  0  0  0  0  0  0
   19.1853   19.1816   21.6418 C   0  0  0  0  0  0  0  0  0  0  0  0
   18.3986   18.8920   20.9321 H   0  0  0  0  0  0  0  0  0  0  0  0
   18.7823   20.0162   22.2316 H   0  0  0  0  0  0  0  0  0  0  0  0
   19.5044   17.9932   22.5719 C   0  0  0  0  0  0  0  0  0  0  0  0
   19.9053   17.1591   21.9794 H   0  0  0  0  0  0  0  0  0  0  0  0
   20.2885   18.2827   23.2853 H   0  0  0  0  0  0  0  0  0  0  0  0
   18.2555   17.5227   23.3441 C   0  0  0  0  0  0  0  0  0  0  0  0
   17.4661   17.1972   22.6539 H   0  0  0  0  0  0  0  0  0  0  0  0
   18.5019   16.6775   23.9999 H   0  0  0  0  0  0  0  0  0  0  0  0
   17.8528   18.3304   23.9693 H   0  0  0  0  0  0  0  0  0  0  0  0
  1  2  1  0  0  0  0
  1  3  2  0  0  0  0
  1  4  1  0  0  0  0
  4  5  1  0  0  0  0
  4  6  2  0  0  0  0
  6  7  1  0  0  0  0
  6  8  1  0  0  0  0
  8  9  1  0  0  0  0
  8 10  1  0  0  0  0
  8 11  1  0  0  0  0
 11 12  1  0  0  0  0
 11 13  1  0  0  0  0
 11 14  1  0  0  0  0
 14 15  1  0  0  0  0
 14 16  1  0  0  0  0
 14 17  1  0  0  0  0
M  END
> <VConfSearch Rank>
138

> <Conf_Id>
1

> <Delta U+W>
0.030

> <U+W>
-53.378

> <U>
9.048

> <W>
-62.426

> <W(PB)>
-64.506

> <W(SA)>
2.080

> <Valence>
2.652

> <Coulomb>
5.578

> <VdW>
0.818

> <VdW6>
-4.535

> <VdW12>
5.352

> <Bond>
0.063

> <Angle>
2.579

> <Pdih>
0.010

> <Idih>
0.000

> <Tether>
0.000

$$$$
VeraChem MOL file


 17 16  0  0  0  0  0  0  0  0999 V2000     
   20.9067   21.6080   20.5151 C   0  0  0  0  0  0  0  0  0  0  0  0
   20.9164   22.4228   21.4186 O   0  5  0  0  0  0  0  0  0  0  0  0
   21.4492   21.8030   19.4448 O   0  0  0  0  0  0  0  0  0  0  0  0
   20.2039   20.3099   20.7030 C   0  0  0  0  0  0  0  0  0  0  0  0
   20.2326   19.6277   19.8566 H   0  0  0  0  0  0  0  0  0  0  0  0
   19.5604   19.9590   21.8396 C   0  0  0  0  0  0  0  0  0  0  0  0
   19.5283   20.6335   22.6949 H   0  0  0  0  0  0  0  0  0  0  0  0
   18.8505   18.6343   22.0249 C   0  0  0  0  0  0  0  0  0  0  0  0
   18.3131   18.3724   21.1034 H   0  0  0  0  0  0  0  0  0  0  0  0
   18.0869   18.7270   22.8089 H   0  0  0  0  0  0  0  0  0  0  0  0
   19.8245   17.4910   22.3853 C   0  0  0  0  0  0  0  0  0  0  0  0
   19.2725   16.5412   22.4030 H   0  0  0  0  0  0  0  0  0  0  0  0
   20.5891   17.3950   21.6020 H   0  0  0  0  0  0  0  0  0  0  0  0
   20.5061   17.7040   23.7538 C   0  0  0  0  0  0  0  0  0  0  0  0
   19.7603   17.7902   24.5548 H   0  0  0  0  0  0  0  0  0  0  0  0
   21.1641   16.8586   23.9929 H   0  0  0  0  0  0  0  0  0  0  0  0
   21.1168   18.6163   23.7544 H   0  0  0  0  0  0  0  0  0  0  0  0
  1  2  1  0  0  0  0
  1  3  2  0  0  0  0
  1  4  1  0  0  0  0
  4  5  1  0  0  0  0
  4  6  2  0  0  0  0
  6  7  1  0  0  0  0
  6  8  1  0  0  0  0
  8  9  1  0  0  0  0
  8 10  1  0  0  0  0
  8 11  1  0  0  0  0
 11 12  1  0  0  0  0
 11 13  1  0  0  0  0
 11 14  1  0  0  0  0
 14 15  1  0  0  0  0
 14 16  1  0  0  0  0
 14 17  1  0  0  0  0
M  END
> <VConfSearch Rank>
139

> <Conf_Id>
3

> <Delta U+W>
0.531

> <U+W>
-52.878

> <U>
10.067

> <W>
-62.945

> <W(PB)>
-64.982

> <W(SA)>
2.037

> <Valence>
2.779

> <Coulomb>
6.474

> <VdW>
0.815

> <VdW6>
-5.088

> <VdW12>
5.902

> <Bond>
0.078

> <Angle>
2.651

> <Pdih>
0.050

> <Idih>
0.000

> <Tether>
0.000

$$$$
VeraChem MOL file


 17 16  0  0  0  0  0  0  0  0999 V2000     
   20.0011   20.5237   24.7392 C   0  0  0  0  0  0  0  0  0  0  0  0
   20.9219   21.0648   25.3198 O   0  5  0  0  0  0  0  0  0  0  0  0
   18.9904   20.1523   25.3057 O   0  0  0  0  0  0  0  0  0  0  0  0
   20.1384   20.3207   23.2715 C   0  0  0  0  0  0  0  0  0  0  0  0
   21.0661   20.6757   22.8288 H   0  0  0  0  0  0  0  0  0  0  0  0
   19.1957   19.7318   22.5008 C   0  0  0  0  0  0  0  0  0  0  0  0
   18.2649   19.3699   22.9369 H   0  0  0  0  0  0  0  0  0  0  0  0
   19.3395   19.5240   21.0073 C   0  0  0  0  0  0  0  0  0  0  0  0
   20.1320   20.1679   20.6022 H   0  0  0  0  0  0  0  0  0  0  0  0
   18.4104   19.8347   20.5111 H   0  0  0  0  0  0  0  0  0  0  0  0
   19.6320   18.0513   20.6459 C   0  0  0  0  0  0  0  0  0  0  0  0
   18.8411   17.4062   21.0531 H   0  0  0  0  0  0  0  0  0  0  0  0
   19.5990   17.9369   19.5536 H   0  0  0  0  0  0  0  0  0  0  0  0
   21.0076   17.5755   21.1599 C   0  0  0  0  0  0  0  0  0  0  0  0
   21.0561   17.6145   22.2559 H   0  0  0  0  0  0  0  0  0  0  0  0
   21.1977   16.5393   20.8516 H   0  0  0  0  0  0  0  0  0  0  0  0
   21.8148   18.2023   20.7588 H   0  0  0  0  0  0  0  0  0  0  0  0
  1  2  1  0  0  0  0
  1  3  2  0  0  0  0
  1  4  1  0  0  0  0
  4  5  1  0  0  0  0
  4  6  2  0  0  0  0
  6  7  1  0  0  0  0
  6  8  1  0  0  0  0
  8  9  1  0  0  0  0
  8 10  1  0  0  0  0
  8 11  1  0  0  0  0
 11 12  1  0  0  0  0
 11 13  1  0  0  0  0
 11 14  1  0  0  0  0
 14 15  1  0  0  0  0
 14 16  1  0  0  0  0
 14 17  1  0  0  0  0
M  END
> <VConfSearch Rank>
140

> <Conf_Id>
45

> <Delta U+W>
0.562

> <U+W>
-52.846

> <U>
10.243

> <W>
-63.089

> <W(PB)>
-65.116

> <W(SA)>
2.026

> <Valence>
2.822

> <Coulomb>
6.637

> <VdW>
0.785

> <VdW6>
-5.216

> <VdW12>
6.001

> <Bond>
0.080

> <Angle>
2.678

> <Pdih>
0.064

> <Idih>
0.000

> <Tether>
0.000

$$$$
VeraChem MOL file


 17 16  0  0  0  0  0  0  0  0999 V2000     
   19.0793   18.8835   18.6750 C   0  0  0  0  0  0  0  0  0  0  0  0
   19.4419   18.0899   17.8287 O   0  5  0  0  0  0  0  0  0  0  0  0
   18.4640   19.8988   18.4082 O   0  0  0  0  0  0  0  0  0  0  0  0
   19.4130   18.5776   20.0924 C   0  0  0  0  0  0  0  0  0  0  0  0
   19.9639   17.6552   20.2618 H   0  0  0  0  0  0  0  0  0  0  0  0
   19.0742   19.3702   21.1346 C   0  0  0  0  0  0  0  0  0  0  0  0
   18.5244   20.2977   20.9759 H   0  0  0  0  0  0  0  0  0  0  0  0
   19.4195   19.0528   22.5731 C   0  0  0  0  0  0  0  0  0  0  0  0
   19.3186   17.9740   22.7543 H   0  0  0  0  0  0  0  0  0  0  0  0
   18.7037   19.5501   23.2414 H   0  0  0  0  0  0  0  0  0  0  0  0
   20.8518   19.5074   22.9206 C   0  0  0  0  0  0  0  0  0  0  0  0
   21.5696   19.0075   22.2555 H   0  0  0  0  0  0  0  0  0  0  0  0
   20.9495   20.5870   22.7406 H   0  0  0  0  0  0  0  0  0  0  0  0
   21.2081   19.1959   24.3881 C   0  0  0  0  0  0  0  0  0  0  0  0
   20.5242   19.7099   25.0762 H   0  0  0  0  0  0  0  0  0  0  0  0
   21.1482   18.1177   24.5866 H   0  0  0  0  0  0  0  0  0  0  0  0
   22.2299   19.5261   24.6165 H   0  0  0  0  0  0  0  0  0  0  0  0
  1  2  1  0  0  0  0
  1  3  2  0  0  0  0
  1  4  1  0  0  0  0
  4  5  1  0  0  0  0
  4  6  2  0  0  0  0
  6  7  1  0  0  0  0
  6  8  1  0  0  0  0
  8  9  1  0  0  0  0
  8 10  1  0  0  0  0
  8 11  1  0  0  0  0
 11 12  1  0  0  0  0
 11 13  1  0  0  0  0
 11 14  1  0  0  0  0
 14 15  1  0  0  0  0
 14 16  1  0  0  0  0
 14 17  1  0  0  0  0
M  END
> <VConfSearch Rank>
141

> <Conf_Id>
36

> <Delta U+W>
0.000

> <U+W>
-53.409

> <U>
9.048

> <W>
-62.457

> <W(PB)>
-64.540

> <W(SA)>
2.084

> <Valence>
2.652

> <Coulomb>
5.578

> <VdW>
0.818

> <VdW6>
-4.534

> <VdW12>
5.352

> <Bond>
0.063

> <Angle>
2.579

> <Pdih>
0.010

> <Idih>
0.000

> <Tether>
0.000

$$$$
VeraChem MOL file


 17 16  0  0  0  0  0  0  0  0999 V2000     
   22.1160   21.6191   21.1521 C   0  0  0  0  0  0  0  0  0  0  0  0
   23.0211   21.5816   21.9644 O   0  5  0  0  0  0  0  0  0  0  0  0
   21.9562   22.5479   20.3844 O   0  0  0  0  0  0  0  0  0  0  0  0
   21.1504   20.4896   21.0752 C   0  0  0  0  0  0  0  0  0  0  0  0
   20.3660   20.5858   20.3280 H   0  0  0  0  0  0  0  0  0  0  0  0
   21.2067   19.3946   21.8669 C   0  0  0  0  0  0  0  0  0  0  0  0
   21.9871   19.2889   22.6203 H   0  0  0  0  0  0  0  0  0  0  0  0
   20.2195   18.2510   21.7835 C   0  0  0  0  0  0  0  0  0  0  0  0
   20.6867   17.3332   22.1653 H   0  0  0  0  0  0  0  0  0  0  0  0
   19.9587   18.0558   20.7343 H   0  0  0  0  0  0  0  0  0  0  0  0
   18.9401   18.5530   22.5903 C   0  0  0  0  0  0  0  0  0  0  0  0
   19.2032   18.7458   23.6396 H   0  0  0  0  0  0  0  0  0  0  0  0
   18.4692   19.4689   22.2068 H   0  0  0  0  0  0  0  0  0  0  0  0
   17.9325   17.3882   22.5178 C   0  0  0  0  0  0  0  0  0  0  0  0
   18.3678   16.4661   22.9250 H   0  0  0  0  0  0  0  0  0  0  0  0
   17.0296   17.6212   23.0973 H   0  0  0  0  0  0  0  0  0  0  0  0
   17.6289   17.1952   21.4805 H   0  0  0  0  0  0  0  0  0  0  0  0
  1  2  1  0  0  0  0
  1  3  2  0  0  0  0
  1  4  1  0  0  0  0
  4  5  1  0  0  0  0
  4  6  2  0  0  0  0
  6  7  1  0  0  0  0
  6  8  1  0  0  0  0
  8  9  1  0  0  0  0
  8 10  1  0  0  0  0
  8 11  1  0  0  0  0
 11 12  1  0  0  0  0
 11 13  1  0  0  0  0
 11 14  1  0  0  0  0
 14 15  1  0  0  0  0
 14 16  1  0  0  0  0
 14 17  1  0  0  0  0
M  END
> <VConfSearch Rank>
142

> <Conf_Id>
1

> <Delta U+W>
0.030

> <U+W>
-53.378

> <U>
9.048

> <W>
-62.426

> <W(PB)>
-64.506

> <W(SA)>
2.080

> <Valence>
2.652

> <Coulomb>
5.578

> <VdW>
0.818

> <VdW6>
-4.535

> <VdW12>
5.352

> <Bond>
0.063

> <Angle>
2.579

> <Pdih>
0.010

> <Idih>
0.000

> <Tether>
0.000

$$$$
VeraChem MOL file


 17 16  0  0  0  0  0  0  0  0999 V2000     
   21.9707   18.1390   24.2369 C   0  0  0  0  0  0  0  0  0  0  0  0
   23.0068   18.6341   23.8346 O   0  5  0  0  0  0  0  0  0  0  0  0
   21.8381   17.7142   25.3682 O   0  0  0  0  0  0  0  0  0  0  0  0
   20.8018   18.0344   23.3221 C   0  0  0  0  0  0  0  0  0  0  0  0
   19.9078   17.5812   23.7441 H   0  0  0  0  0  0  0  0  0  0  0  0
   20.8069   18.4661   22.0405 C   0  0  0  0  0  0  0  0  0  0  0  0
   21.6961   18.9248   21.6086 H   0  0  0  0  0  0  0  0  0  0  0  0
   19.6120   18.3598   21.1164 C   0  0  0  0  0  0  0  0  0  0  0  0
   19.1180   17.3898   21.2632 H   0  0  0  0  0  0  0  0  0  0  0  0
   19.9467   18.3777   20.0705 H   0  0  0  0  0  0  0  0  0  0  0  0
   18.5863   19.4908   21.3497 C   0  0  0  0  0  0  0  0  0  0  0  0
   17.6983   19.3038   20.7302 H   0  0  0  0  0  0  0  0  0  0  0  0
   18.2485   19.4747   22.3952 H   0  0  0  0  0  0  0  0  0  0  0  0
   19.1550   20.8847   21.0085 C   0  0  0  0  0  0  0  0  0  0  0  0
   19.4877   20.9279   19.9632 H   0  0  0  0  0  0  0  0  0  0  0  0
   18.3907   21.6592   21.1533 H   0  0  0  0  0  0  0  0  0  0  0  0
   20.0102   21.1317   21.6510 H   0  0  0  0  0  0  0  0  0  0  0  0
  1  2  1  0  0  0  0
  1  3  2  0  0  0  0
  1  4  1  0  0  0  0
  4  5  1  0  0  0  0
  4  6  2  0  0  0  0
  6  7  1  0  0  0  0
  6  8  1  0  0  0  0
  8  9  1  0  0  0  0
  8 10  1  0  0  0  0
  8 11  1  0  0  0  0
 11 12  1  0  0  0  0
 11 13  1  0  0  0  0
 11 14  1  0  0  0  0
 14 15  1  0  0  0  0
 14 16  1  0  0  0  0
 14 17  1  0  0  0  0
M  END
> <VConfSearch Rank>
143

> <Conf_Id>
3

> <Delta U+W>
0.531

> <U+W>
-52.878

> <U>
10.067

> <W>
-62.945

> <W(PB)>
-64.982

> <W(SA)>
2.037

> <Valence>
2.779

> <Coulomb>
6.474

> <VdW>
0.815

> <VdW6>
-5.088

> <VdW12>
5.902

> <Bond>
0.078

> <Angle>
2.651

> <Pdih>
0.050

> <Idih>
0.000

> <Tether>
0.000

$$$$
VeraChem MOL file


 17 16  0  0  0  0  0  0  0  0999 V2000     
   18.1198   20.3137   20.0285 C   0  0  0  0  0  0  0  0  0  0  0  0
   18.2541   20.4144   18.8245 O   0  5  0  0  0  0  0  0  0  0  0  0
   17.3565   21.0124   20.6685 O   0  0  0  0  0  0  0  0  0  0  0  0
   18.9329   19.2816   20.7268 C   0  0  0  0  0  0  0  0  0  0  0  0
   19.5940   18.6923   20.0957 H   0  0  0  0  0  0  0  0  0  0  0  0
   18.8868   19.0614   22.0606 C   0  0  0  0  0  0  0  0  0  0  0  0
   18.2299   19.6498   22.7007 H   0  0  0  0  0  0  0  0  0  0  0  0
   19.7179   18.0117   22.7690 C   0  0  0  0  0  0  0  0  0  0  0  0
   20.1063   17.2769   22.0508 H   0  0  0  0  0  0  0  0  0  0  0  0
   19.0743   17.4518   23.4606 H   0  0  0  0  0  0  0  0  0  0  0  0
   20.8890   18.6296   23.5639 C   0  0  0  0  0  0  0  0  0  0  0  0
   20.5016   19.3667   24.2807 H   0  0  0  0  0  0  0  0  0  0  0  0
   21.3756   17.8420   24.1557 H   0  0  0  0  0  0  0  0  0  0  0  0
   21.9410   19.2948   22.6508 C   0  0  0  0  0  0  0  0  0  0  0  0
   21.5056   20.1315   22.0891 H   0  0  0  0  0  0  0  0  0  0  0  0
   22.7757   19.6875   23.2458 H   0  0  0  0  0  0  0  0  0  0  0  0
   22.3478   18.5734   21.9303 H   0  0  0  0  0  0  0  0  0  0  0  0
  1  2  1  0  0  0  0
  1  3  2  0  0  0  0
  1  4  1  0  0  0  0
  4  5  1  0  0  0  0
  4  6  2  0  0  0  0
  6  7  1  0  0  0  0
  6  8  1  0  0  0  0
  8  9  1  0  0  0  0
  8 10  1  0  0  0  0
  8 11  1  0  0  0  0
 11 12  1  0  0  0  0
 11 13  1  0  0  0  0
 11 14  1  0  0  0  0
 14 15  1  0  0  0  0
 14 16  1  0  0  0  0
 14 17  1  0  0  0  0
M  END
> <VConfSearch Rank>
144

> <Conf_Id>
45

> <Delta U+W>
0.562

> <U+W>
-52.846

> <U>
10.243

> <W>
-63.089

> <W(PB)>
-65.116

> <W(SA)>
2.026

> <Valence>
2.822

> <Coulomb>
6.637

> <VdW>
0.785

> <VdW6>
-5.216

> <VdW12>
6.001

> <Bond>
0.080

> <Angle>
2.678

> <Pdih>
0.064

> <Idih>
0.000

> <Tether>
0.000

$$$$
VeraChem MOL file


 17 16  0  0  0  0  0  0  0  0999 V2000     
   20.5645   15.8931   21.1053 C   0  0  0  0  0  0  0  0  0  0  0  0
   21.3665   15.1117   21.5785 O   0  5  0  0  0  0  0  0  0  0  0  0
   19.9667   15.6786   20.0675 O   0  0  0  0  0  0  0  0  0  0  0  0
   20.3189   17.1597   21.8467 C   0  0  0  0  0  0  0  0  0  0  0  0
   20.8853   17.2888   22.7662 H   0  0  0  0  0  0  0  0  0  0  0  0
   19.4566   18.1176   21.4372 C   0  0  0  0  0  0  0  0  0  0  0  0
   18.8859   17.9996   20.5162 H   0  0  0  0  0  0  0  0  0  0  0  0
   19.2143   19.4040   22.1960 C   0  0  0  0  0  0  0  0  0  0  0  0
   19.2169   19.2086   23.2770 H   0  0  0  0  0  0  0  0  0  0  0  0
   18.2168   19.7931   21.9512 H   0  0  0  0  0  0  0  0  0  0  0  0
   20.2801   20.4660   21.8564 C   0  0  0  0  0  0  0  0  0  0  0  0
   21.2785   20.0798   22.1047 H   0  0  0  0  0  0  0  0  0  0  0  0
   20.2742   20.6612   20.7750 H   0  0  0  0  0  0  0  0  0  0  0  0
   20.0348   21.7836   22.6188 C   0  0  0  0  0  0  0  0  0  0  0  0
   19.0549   22.2084   22.3641 H   0  0  0  0  0  0  0  0  0  0  0  0
   20.0666   21.6212   23.7042 H   0  0  0  0  0  0  0  0  0  0  0  0
   20.8023   22.5261   22.3647 H   0  0  0  0  0  0  0  0  0  0  0  0
  1  2  1  0  0  0  0
  1  3  2  0  0  0  0
  1  4  1  0  0  0  0
  4  5  1  0  0  0  0
  4  6  2  0  0  0  0
  6  7  1  0  0  0  0
  6  8  1  0  0  0  0
  8  9  1  0  0  0  0
  8 10  1  0  0  0  0
  8 11  1  0  0  0  0
 11 12  1  0  0  0  0
 11 13  1  0  0  0  0
 11 14  1  0  0  0  0
 14 15  1  0  0  0  0
 14 16  1  0  0  0  0
 14 17  1  0  0  0  0
M  END
> <VConfSearch Rank>
145

> <Conf_Id>
36

> <Delta U+W>
0.000

> <U+W>
-53.409

> <U>
9.048

> <W>
-62.457

> <W(PB)>
-64.540

> <W(SA)>
2.084

> <Valence>
2.652

> <Coulomb>
5.578

> <VdW>
0.818

> <VdW6>
-4.534

> <VdW12>
5.352

> <Bond>
0.063

> <Angle>
2.579

> <Pdih>
0.010

> <Idih>
0.000

> <Tether>
0.000

$$$$
VeraChem MOL file


 17 16  0  0  0  0  0  0  0  0999 V2000     
   20.6118   18.7023   25.2102 C   0  0  0  0  0  0  0  0  0  0  0  0
   19.8243   19.4192   25.7988 O   0  5  0  0  0  0  0  0  0  0  0  0
   21.5447   18.1529   25.7630 O   0  0  0  0  0  0  0  0  0  0  0  0
   20.4455   18.4715   23.7496 C   0  0  0  0  0  0  0  0  0  0  0  0
   21.1829   17.8208   23.2850 H   0  0  0  0  0  0  0  0  0  0  0  0
   19.4556   19.0184   23.0080 C   0  0  0  0  0  0  0  0  0  0  0  0
   18.7128   19.6734   23.4629 H   0  0  0  0  0  0  0  0  0  0  0  0
   19.2947   18.7800   21.5226 C   0  0  0  0  0  0  0  0  0  0  0  0
   18.2449   18.9315   21.2373 H   0  0  0  0  0  0  0  0  0  0  0  0
   19.5365   17.7359   21.2814 H   0  0  0  0  0  0  0  0  0  0  0  0
   20.1944   19.7258   20.7010 C   0  0  0  0  0  0  0  0  0  0  0  0
   19.9491   20.7695   20.9423 H   0  0  0  0  0  0  0  0  0  0  0  0
   21.2456   19.5727   20.9822 H   0  0  0  0  0  0  0  0  0  0  0  0
   20.0293   19.4955   19.1853 C   0  0  0  0  0  0  0  0  0  0  0  0
   18.9923   19.6732   18.8714 H   0  0  0  0  0  0  0  0  0  0  0  0
   20.6765   20.1768   18.6178 H   0  0  0  0  0  0  0  0  0  0  0  0
   20.2986   18.4666   18.9127 H   0  0  0  0  0  0  0  0  0  0  0  0
  1  2  1  0  0  0  0
  1  3  2  0  0  0  0
  1  4  1  0  0  0  0
  4  5  1  0  0  0  0
  4  6  2  0  0  0  0
  6  7  1  0  0  0  0
  6  8  1  0  0  0  0
  8  9  1  0  0  0  0
  8 10  1  0  0  0  0
  8 11  1  0  0  0  0
 11 12  1  0  0  0  0
 11 13  1  0  0  0  0
 11 14  1  0  0  0  0
 14 15  1  0  0  0  0
 14 16  1  0  0  0  0
 14 17  1  0  0  0  0
M  END
> <VConfSearch Rank>
146

> <Conf_Id>
1

> <Delta U+W>
0.030

> <U+W>
-53.378

> <U>
9.048

> <W>
-62.426

> <W(PB)>
-64.506

> <W(SA)>
2.080

> <Valence>
2.652

> <Coulomb>
5.578

> <VdW>
0.818

> <VdW6>
-4.535

> <VdW12>
5.352

> <Bond>
0.063

> <Angle>
2.579

> <Pdih>
0.010

> <Idih>
0.000

> <Tether>
0.000

$$$$
VeraChem MOL file


 17 16  0  0  0  0  0  0  0  0999 V2000     
   19.8659   21.9040   20.8067 C   0  0  0  0  0  0  0  0  0  0  0  0
   19.1438   21.6837   19.8525 O   0  5  0  0  0  0  0  0  0  0  0  0
   20.0972   23.0258   21.2141 O   0  0  0  0  0  0  0  0  0  0  0  0
   20.5085   20.7675   21.5205 C   0  0  0  0  0  0  0  0  0  0  0  0
   21.1421   21.0336   22.3634 H   0  0  0  0  0  0  0  0  0  0  0  0
   20.3394   19.4701   21.1780 C   0  0  0  0  0  0  0  0  0  0  0  0
   19.7041   19.1921   20.3374 H   0  0  0  0  0  0  0  0  0  0  0  0
   20.9936   18.3184   21.9118 C   0  0  0  0  0  0  0  0  0  0  0  0
   22.0275   18.5855   22.1694 H   0  0  0  0  0  0  0  0  0  0  0  0
   21.0591   17.4439   21.2504 H   0  0  0  0  0  0  0  0  0  0  0  0
   20.2337   17.9352   23.2007 C   0  0  0  0  0  0  0  0  0  0  0  0
   20.8079   17.1711   23.7425 H   0  0  0  0  0  0  0  0  0  0  0  0
   20.1677   18.8079   23.8651 H   0  0  0  0  0  0  0  0  0  0  0  0
   18.8175   17.3925   22.9131 C   0  0  0  0  0  0  0  0  0  0  0  0
   18.8599   16.5111   22.2601 H   0  0  0  0  0  0  0  0  0  0  0  0
   18.3198   17.0992   23.8464 H   0  0  0  0  0  0  0  0  0  0  0  0
   18.1940   18.1521   22.4237 H   0  0  0  0  0  0  0  0  0  0  0  0
  1  2  1  0  0  0  0
  1  3  2  0  0  0  0
  1  4  1  0  0  0  0
  4  5  1  0  0  0  0
  4  6  2  0  0  0  0
  6  7  1  0  0  0  0
  6  8  1  0  0  0  0
  8  9  1  0  0  0  0
  8 10  1  0  0  0  0
  8 11  1  0  0  0  0
 11 12  1  0  0  0  0
 11 13  1  0  0  0  0
 11 14  1  0  0  0  0
 14 15  1  0  0  0  0
 14 16  1  0  0  0  0
 14 17  1  0  0  0  0
M  END
> <VConfSearch Rank>
147

> <Conf_Id>
3

> <Delta U+W>
0.531

> <U+W>
-52.878

> <U>
10.067

> <W>
-62.945

> <W(PB)>
-64.982

> <W(SA)>
2.037

> <Valence>
2.779

> <Coulomb>
6.474

> <VdW>
0.815

> <VdW6>
-5.088

> <VdW12>
5.902

> <Bond>
0.078

> <Angle>
2.651

> <Pdih>
0.050

> <Idih>
0.000

> <Tether>
0.000

$$$$
VeraChem MOL file


 17 16  0  0  0  0  0  0  0  0999 V2000     
   19.7844   21.6689   23.6512 C   0  0  0  0  0  0  0  0  0  0  0  0
   20.5212   22.1058   24.5137 O   0  5  0  0  0  0  0  0  0  0  0  0
   18.6311   22.0341   23.5207 O   0  0  0  0  0  0  0  0  0  0  0  0
   20.3412   20.6462   22.7248 C   0  0  0  0  0  0  0  0  0  0  0  0
   21.3776   20.3651   22.8969 H   0  0  0  0  0  0  0  0  0  0  0  0
   19.6359   20.0735   21.7227 C   0  0  0  0  0  0  0  0  0  0  0  0
   18.5960   20.3467   21.5456 H   0  0  0  0  0  0  0  0  0  0  0  0
   20.2048   19.0306   20.7830 C   0  0  0  0  0  0  0  0  0  0  0  0
   21.3026   19.0344   20.8204 H   0  0  0  0  0  0  0  0  0  0  0  0
   19.9336   19.2918   19.7514 H   0  0  0  0  0  0  0  0  0  0  0  0
   19.6799   17.6120   21.0949 C   0  0  0  0  0  0  0  0  0  0  0  0
   18.5816   17.6079   21.0603 H   0  0  0  0  0  0  0  0  0  0  0  0
   20.0212   16.9229   20.3101 H   0  0  0  0  0  0  0  0  0  0  0  0
   20.1592   17.0895   22.4661 C   0  0  0  0  0  0  0  0  0  0  0  0
   19.7826   17.7183   23.2833 H   0  0  0  0  0  0  0  0  0  0  0  0
   19.8003   16.0662   22.6363 H   0  0  0  0  0  0  0  0  0  0  0  0
   21.2556   17.0778   22.5203 H   0  0  0  0  0  0  0  0  0  0  0  0
  1  2  1  0  0  0  0
  1  3  2  0  0  0  0
  1  4  1  0  0  0  0
  4  5  1  0  0  0  0
  4  6  2  0  0  0  0
  6  7  1  0  0  0  0
  6  8  1  0  0  0  0
  8  9  1  0  0  0  0
  8 10  1  0  0  0  0
  8 11  1  0  0  0  0
 11 12  1  0  0  0  0
 11 13  1  0  0  0  0
 11 14  1  0  0  0  0
 14 15  1  0  0  0  0
 14 16  1  0  0  0  0
 14 17  1  0  0  0  0
M  END
> <VConfSearch Rank>
148

> <Conf_Id>
45

> <Delta U+W>
0.562

> <U+W>
-52.846

> <U>
10.243

> <W>
-63.089

> <W(PB)>
-65.116

> <W(SA)>
2.026

> <Valence>
2.822

> <Coulomb>
6.637

> <VdW>
0.785

> <VdW6>
-5.216

> <VdW12>
6.001

> <Bond>
0.080

> <Angle>
2.678

> <Pdih>
0.064

> <Idih>
0.000

> <Tether>
0.000

$$$$
VeraChem MOL file


 17 16  0  0  0  0  0  0  0  0999 V2000     
   20.7053   20.7875   24.7565 C   0  0  0  0  0  0  0  0  0  0  0  0
   21.5771   21.6074   24.9694 O   0  5  0  0  0  0  0  0  0  0  0  0
   20.0632   20.2600   25.6452 O   0  0  0  0  0  0  0  0  0  0  0  0
   20.4285   20.4307   23.3387 C   0  0  0  0  0  0  0  0  0  0  0  0
   21.0375   20.9382   22.5940 H   0  0  0  0  0  0  0  0  0  0  0  0
   19.4899   19.5353   22.9562 C   0  0  0  0  0  0  0  0  0  0  0  0
   18.8758   19.0194   23.6941 H   0  0  0  0  0  0  0  0  0  0  0  0
   19.2161   19.1765   21.5121 C   0  0  0  0  0  0  0  0  0  0  0  0
   19.2913   20.0729   20.8816 H   0  0  0  0  0  0  0  0  0  0  0  0
   18.1853   18.8104   21.4131 H   0  0  0  0  0  0  0  0  0  0  0  0
   20.1972   18.0997   21.0050 C   0  0  0  0  0  0  0  0  0  0  0  0
   21.2289   18.4661   21.0994 H   0  0  0  0  0  0  0  0  0  0  0  0
   20.1186   17.2034   21.6359 H   0  0  0  0  0  0  0  0  0  0  0  0
   19.9188   17.7215   19.5363 C   0  0  0  0  0  0  0  0  0  0  0  0
   18.9029   17.3218   19.4192 H   0  0  0  0  0  0  0  0  0  0  0  0
   20.0214   18.5952   18.8794 H   0  0  0  0  0  0  0  0  0  0  0  0
   20.6260   16.9550   19.1936 H   0  0  0  0  0  0  0  0  0  0  0  0
  1  2  1  0  0  0  0
  1  3  2  0  0  0  0
  1  4  1  0  0  0  0
  4  5  1  0  0  0  0
  4  6  2  0  0  0  0
  6  7  1  0  0  0  0
  6  8  1  0  0  0  0
  8  9  1  0  0  0  0
  8 10  1  0  0  0  0
  8 11  1  0  0  0  0
 11 12  1  0  0  0  0
 11 13  1  0  0  0  0
 11 14  1  0  0  0  0
 14 15  1  0  0  0  0
 14 16  1  0  0  0  0
 14 17  1  0  0  0  0
M  END
> <VConfSearch Rank>
149

> <Conf_Id>
36

> <Delta U+W>
0.000

> <U+W>
-53.409

> <U>
9.048

> <W>
-62.457

> <W(PB)>
-64.540

> <W(SA)>
2.084

> <Valence>
2.652

> <Coulomb>
5.578

> <VdW>
0.818

> <VdW6>
-4.534

> <VdW12>
5.352

> <Bond>
0.063

> <Angle>
2.579

> <Pdih>
0.010

> <Idih>
0.000

> <Tether>
0.000

$$$$
VeraChem MOL file


 17 16  0  0  0  0  0  0  0  0999 V2000     
   20.5224   21.2392   24.4659 C   0  0  0  0  0  0  0  0  0  0  0  0
   19.4485   21.7556   24.7115 O   0  5  0  0  0  0  0  0  0  0  0  0
   21.5688   21.6334   24.9427 O   0  0  0  0  0  0  0  0  0  0  0  0
   20.5830   20.0716   23.5455 C   0  0  0  0  0  0  0  0  0  0  0  0
   21.5730   19.6575   23.3687 H   0  0  0  0  0  0  0  0  0  0  0  0
   19.5001   19.5293   22.9436 C   0  0  0  0  0  0  0  0  0  0  0  0
   18.5037   19.9376   23.1120 H   0  0  0  0  0  0  0  0  0  0  0  0
   19.5706   18.3429   22.0073 C   0  0  0  0  0  0  0  0  0  0  0  0
   18.6038   17.8216   22.0007 H   0  0  0  0  0  0  0  0  0  0  0  0
   20.3129   17.6200   22.3723 H   0  0  0  0  0  0  0  0  0  0  0  0
   19.9312   18.7798   20.5727 C   0  0  0  0  0  0  0  0  0  0  0  0
   19.1861   19.5011   20.2091 H   0  0  0  0  0  0  0  0  0  0  0  0
   20.9002   19.2980   20.5770 H   0  0  0  0  0  0  0  0  0  0  0  0
   19.9960   17.5771   19.6101 C   0  0  0  0  0  0  0  0  0  0  0  0
   19.0291   17.0591   19.5627 H   0  0  0  0  0  0  0  0  0  0  0  0
   20.2535   17.9073   18.5953 H   0  0  0  0  0  0  0  0  0  0  0  0
   20.7565   16.8547   19.9345 H   0  0  0  0  0  0  0  0  0  0  0  0
  1  2  1  0  0  0  0
  1  3  2  0  0  0  0
  1  4  1  0  0  0  0
  4  5  1  0  0  0  0
  4  6  2  0  0  0  0
  6  7  1  0  0  0  0
  6  8  1  0  0  0  0
  8  9  1  0  0  0  0
  8 10  1  0  0  0  0
  8 11  1  0  0  0  0
 11 12  1  0  0  0  0
 11 13  1  0  0  0  0
 11 14  1  0  0  0  0
 14 15  1  0  0  0  0
 14 16  1  0  0  0  0
 14 17  1  0  0  0  0
M  END
> <VConfSearch Rank>
150

> <Conf_Id>
1

> <Delta U+W>
0.030

> <U+W>
-53.378

> <U>
9.048

> <W>
-62.426

> <W(PB)>
-64.506

> <W(SA)>
2.080

> <Valence>
2.652

> <Coulomb>
5.578

> <VdW>
0.818

> <VdW6>
-4.535

> <VdW12>
5.352

> <Bond>
0.063

> <Angle>
2.579

> <Pdih>
0.010

> <Idih>
0.000

> <Tether>
0.000

$$$$
VeraChem MOL file


 17 16  0  0  0  0  0  0  0  0999 V2000     
   19.2250   19.9182   24.9111 C   0  0  0  0  0  0  0  0  0  0  0  0
   19.0737   18.8246   25.4226 O   0  5  0  0  0  0  0  0  0  0  0  0
   19.3346   20.9406   25.5597 O   0  0  0  0  0  0  0  0  0  0  0  0
   19.2780   20.0357   23.4287 C   0  0  0  0  0  0  0  0  0  0  0  0
   19.4141   21.0410   23.0368 H   0  0  0  0  0  0  0  0  0  0  0  0
   19.1713   18.9841   22.5851 C   0  0  0  0  0  0  0  0  0  0  0  0
   19.0380   17.9722   22.9672 H   0  0  0  0  0  0  0  0  0  0  0  0
   19.2300   19.1109   21.0773 C   0  0  0  0  0  0  0  0  0  0  0  0
   18.6704   20.0015   20.7605 H   0  0  0  0  0  0  0  0  0  0  0  0
   18.7284   18.2523   20.6111 H   0  0  0  0  0  0  0  0  0  0  0  0
   20.6790   19.2102   20.5519 C   0  0  0  0  0  0  0  0  0  0  0  0
   20.6566   19.4057   19.4710 H   0  0  0  0  0  0  0  0  0  0  0  0
   21.1832   20.0693   21.0158 H   0  0  0  0  0  0  0  0  0  0  0  0
   21.4930   17.9253   20.8154 C   0  0  0  0  0  0  0  0  0  0  0  0
   21.0137   17.0544   20.3496 H   0  0  0  0  0  0  0  0  0  0  0  0
   22.5049   18.0177   20.4003 H   0  0  0  0  0  0  0  0  0  0  0  0
   21.5874   17.7300   21.8916 H   0  0  0  0  0  0  0  0  0  0  0  0
  1  2  1  0  0  0  0
  1  3  2  0  0  0  0
  1  4  1  0  0  0  0
  4  5  1  0  0  0  0
  4  6  2  0  0  0  0
  6  7  1  0  0  0  0
  6  8  1  0  0  0  0
  8  9  1  0  0  0  0
  8 10  1  0  0  0  0
  8 11  1  0  0  0  0
 11 12  1  0  0  0  0
 11 13  1  0  0  0  0
 11 14  1  0  0  0  0
 14 15  1  0  0  0  0
 14 16  1  0  0  0  0
 14 17  1  0  0  0  0
M  END
> <VConfSearch Rank>
151

> <Conf_Id>
3

> <Delta U+W>
0.531

> <U+W>
-52.878

> <U>
10.067

> <W>
-62.945

> <W(PB)>
-64.982

> <W(SA)>
2.037

> <Valence>
2.779

> <Coulomb>
6.474

> <VdW>
0.815

> <VdW6>
-5.088

> <VdW12>
5.902

> <Bond>
0.078

> <Angle>
2.651

> <Pdih>
0.050

> <Idih>
0.000

> <Tether>
0.000

$$$$
VeraChem MOL file


 17 16  0  0  0  0  0  0  0  0999 V2000     
   22.1232   21.0126   21.1535 C   0  0  0  0  0  0  0  0  0  0  0  0
   22.1373   22.2280   21.1715 O   0  5  0  0  0  0  0  0  0  0  0  0
   22.8409   20.3546   20.4238 O   0  0  0  0  0  0  0  0  0  0  0  0
   21.1811   20.3224   22.0755 C   0  0  0  0  0  0  0  0  0  0  0  0
   20.5693   20.9696   22.6997 H   0  0  0  0  0  0  0  0  0  0  0  0
   21.0580   18.9780   22.1595 C   0  0  0  0  0  0  0  0  0  0  0  0
   21.6644   18.3223   21.5351 H   0  0  0  0  0  0  0  0  0  0  0  0
   20.0959   18.2783   23.0971 C   0  0  0  0  0  0  0  0  0  0  0  0
   19.7573   18.9641   23.8857 H   0  0  0  0  0  0  0  0  0  0  0  0
   20.6235   17.4620   23.6082 H   0  0  0  0  0  0  0  0  0  0  0  0
   18.8727   17.6967   22.3549 C   0  0  0  0  0  0  0  0  0  0  0  0
   19.2106   17.0127   21.5641 H   0  0  0  0  0  0  0  0  0  0  0  0
   18.2796   17.0954   23.0577 H   0  0  0  0  0  0  0  0  0  0  0  0
   17.9718   18.7921   21.7455 C   0  0  0  0  0  0  0  0  0  0  0  0
   18.5131   19.3746   20.9888 H   0  0  0  0  0  0  0  0  0  0  0  0
   17.0942   18.3448   21.2611 H   0  0  0  0  0  0  0  0  0  0  0  0
   17.6159   19.4836   22.5202 H   0  0  0  0  0  0  0  0  0  0  0  0
  1  2  1  0  0  0  0
  1  3  2  0  0  0  0
  1  4  1  0  0  0  0
  4  5  1  0  0  0  0
  4  6  2  0  0  0  0
  6  7  1  0  0  0  0
  6  8  1  0  0  0  0
  8  9  1  0  0  0  0
  8 10  1  0  0  0  0
  8 11  1  0  0  0  0
 11 12  1  0  0  0  0
 11 13  1  0  0  0  0
 11 14  1  0  0  0  0
 14 15  1  0  0  0  0
 14 16  1  0  0  0  0
 14 17  1  0  0  0  0
M  END
> <VConfSearch Rank>
152

> <Conf_Id>
45

> <Delta U+W>
0.562

> <U+W>
-52.846

> <U>
10.243

> <W>
-63.089

> <W(PB)>
-65.116

> <W(SA)>
2.026

> <Valence>
2.822

> <Coulomb>
6.637

> <VdW>
0.785

> <VdW6>
-5.216

> <VdW12>
6.001

> <Bond>
0.080

> <Angle>
2.678

> <Pdih>
0.064

> <Idih>
0.000

> <Tether>
0.000

$$$$
VeraChem MOL file


 17 16  0  0  0  0  0  0  0  0999 V2000     
   18.2192   19.6346   19.0915 C   0  0  0  0  0  0  0  0  0  0  0  0
   17.0145   19.6931   18.9398 O   0  5  0  0  0  0  0  0  0  0  0  0
   18.9978   19.5325   18.1621 O   0  0  0  0  0  0  0  0  0  0  0  0
   18.7405   19.6937   20.4839 C   0  0  0  0  0  0  0  0  0  0  0  0
   17.9918   19.7850   21.2675 H   0  0  0  0  0  0  0  0  0  0  0  0
   20.0544   19.6382   20.7998 C   0  0  0  0  0  0  0  0  0  0  0  0
   20.8128   19.5443   20.0228 H   0  0  0  0  0  0  0  0  0  0  0  0
   20.5762   19.6968   22.2188 C   0  0  0  0  0  0  0  0  0  0  0  0
   19.9836   20.4101   22.8077 H   0  0  0  0  0  0  0  0  0  0  0  0
   21.6075   20.0745   22.2161 H   0  0  0  0  0  0  0  0  0  0  0  0
   20.5368   18.3085   22.8898 C   0  0  0  0  0  0  0  0  0  0  0  0
   19.5048   17.9309   22.8970 H   0  0  0  0  0  0  0  0  0  0  0  0
   21.1318   17.5973   22.3001 H   0  0  0  0  0  0  0  0  0  0  0  0
   21.0759   18.3579   24.3335 C   0  0  0  0  0  0  0  0  0  0  0  0
   22.1182   18.7024   24.3522 H   0  0  0  0  0  0  0  0  0  0  0  0
   20.4782   19.0394   24.9529 H   0  0  0  0  0  0  0  0  0  0  0  0
   21.0399   17.3620   24.7940 H   0  0  0  0  0  0  0  0  0  0  0  0
  1  2  1  0  0  0  0
  1  3  2  0  0  0  0
  1  4  1  0  0  0  0
  4  5  1  0  0  0  0
  4  6  2  0  0  0  0
  6  7  1  0  0  0  0
  6  8  1  0  0  0  0
  8  9  1  0  0  0  0
  8 10  1  0  0  0  0
  8 11  1  0  0  0  0
 11 12  1  0  0  0  0
 11 13  1  0  0  0  0
 11 14  1  0  0  0  0
 14 15  1  0  0  0  0
 14 16  1  0  0  0  0
 14 17  1  0  0  0  0
M  END
> <VConfSearch Rank>
153

> <Conf_Id>
36

> <Delta U+W>
0.000

> <U+W>
-53.409

> <U>
9.048

> <W>
-62.457

> <W(PB)>
-64.540

> <W(SA)>
2.084

> <Valence>
2.652

> <Coulomb>
5.578

> <VdW>
0.818

> <VdW6>
-4.534

> <VdW12>
5.352

> <Bond>
0.063

> <Angle>
2.579

> <Pdih>
0.010

> <Idih>
0.000

> <Tether>
0.000

$$$$
VeraChem MOL file


 17 16  0  0  0  0  0  0  0  0999 V2000     
   22.3620   16.6719   21.9513 C   0  0  0  0  0  0  0  0  0  0  0  0
   22.0133   15.8555   22.7833 O   0  5  0  0  0  0  0  0  0  0  0  0
   23.4626   16.6593   21.4352 O   0  0  0  0  0  0  0  0  0  0  0  0
   21.4171   17.7412   21.5298 C   0  0  0  0  0  0  0  0  0  0  0  0
   21.7912   18.4379   20.7831 H   0  0  0  0  0  0  0  0  0  0  0  0
   20.1640   17.8762   22.0205 C   0  0  0  0  0  0  0  0  0  0  0  0
   19.7798   17.1851   22.7705 H   0  0  0  0  0  0  0  0  0  0  0  0
   19.2099   18.9678   21.5878 C   0  0  0  0  0  0  0  0  0  0  0  0
   18.1752   18.6390   21.7536 H   0  0  0  0  0  0  0  0  0  0  0  0
   19.3111   19.1492   20.5090 H   0  0  0  0  0  0  0  0  0  0  0  0
   19.4657   20.2771   22.3619 C   0  0  0  0  0  0  0  0  0  0  0  0
   19.3618   20.0937   23.4404 H   0  0  0  0  0  0  0  0  0  0  0  0
   20.4995   20.6098   22.1938 H   0  0  0  0  0  0  0  0  0  0  0  0
   18.4910   21.3923   21.9332 C   0  0  0  0  0  0  0  0  0  0  0  0
   17.4500   21.0978   22.1203 H   0  0  0  0  0  0  0  0  0  0  0  0
   18.6882   22.3151   22.4943 H   0  0  0  0  0  0  0  0  0  0  0  0
   18.5970   21.6169   20.8637 H   0  0  0  0  0  0  0  0  0  0  0  0
  1  2  1  0  0  0  0
  1  3  2  0  0  0  0
  1  4  1  0  0  0  0
  4  5  1  0  0  0  0
  4  6  2  0  0  0  0
  6  7  1  0  0  0  0
  6  8  1  0  0  0  0
  8  9  1  0  0  0  0
  8 10  1  0  0  0  0
  8 11  1  0  0  0  0
 11 12  1  0  0  0  0
 11 13  1  0  0  0  0
 11 14  1  0  0  0  0
 14 15  1  0  0  0  0
 14 16  1  0  0  0  0
 14 17  1  0  0  0  0
M  END
> <VConfSearch Rank>
154

> <Conf_Id>
1

> <Delta U+W>
0.030

> <U+W>
-53.378

> <U>
9.048

> <W>
-62.426

> <W(PB)>
-64.506

> <W(SA)>
2.080

> <Valence>
2.652

> <Coulomb>
5.578

> <VdW>
0.818

> <VdW6>
-4.535

> <VdW12>
5.352

> <Bond>
0.063

> <Angle>
2.579

> <Pdih>
0.010

> <Idih>
0.000

> <Tether>
0.000

$$$$
VeraChem MOL file


 17 16  0  0  0  0  0  0  0  0999 V2000     
   21.9345   21.4611   21.6153 C   0  0  0  0  0  0  0  0  0  0  0  0
   22.6672   21.3299   22.5778 O   0  5  0  0  0  0  0  0  0  0  0  0
   22.2155   22.1624   20.6629 O   0  0  0  0  0  0  0  0  0  0  0  0
   20.6307   20.7450   21.5806 C   0  0  0  0  0  0  0  0  0  0  0  0
   20.0239   20.9064   20.6926 H   0  0  0  0  0  0  0  0  0  0  0  0
   20.1907   19.9323   22.5680 C   0  0  0  0  0  0  0  0  0  0  0  0
   20.7920   19.7608   23.4605 H   0  0  0  0  0  0  0  0  0  0  0  0
   18.8640   19.2036   22.5239 C   0  0  0  0  0  0  0  0  0  0  0  0
   18.0930   19.8670   22.1091 H   0  0  0  0  0  0  0  0  0  0  0  0
   18.5396   18.9576   23.5439 H   0  0  0  0  0  0  0  0  0  0  0  0
   18.9302   17.9132   21.6777 C   0  0  0  0  0  0  0  0  0  0  0  0
   17.9213   17.4861   21.5945 H   0  0  0  0  0  0  0  0  0  0  0  0
   19.2533   18.1563   20.6560 H   0  0  0  0  0  0  0  0  0  0  0  0
   19.8770   16.8558   22.2846 C   0  0  0  0  0  0  0  0  0  0  0  0
   19.5654   16.5878   23.3026 H   0  0  0  0  0  0  0  0  0  0  0  0
   19.8740   15.9414   21.6775 H   0  0  0  0  0  0  0  0  0  0  0  0
   20.9092   17.2271   22.3285 H   0  0  0  0  0  0  0  0  0  0  0  0
  1  2  1  0  0  0  0
  1  3  2  0  0  0  0
  1  4  1  0  0  0  0
  4  5  1  0  0  0  0
  4  6  2  0  0  0  0
  6  7  1  0  0  0  0
  6  8  1  0  0  0  0
  8  9  1  0  0  0  0
  8 10  1  0  0  0  0
  8 11  1  0  0  0  0
 11 12  1  0  0  0  0
 11 13  1  0  0  0  0
 11 14  1  0  0  0  0
 14 15  1  0  0  0  0
 14 16  1  0  0  0  0
 14 17  1  0  0  0  0
M  END
> <VConfSearch Rank>
155

> <Conf_Id>
3

> <Delta U+W>
0.531

> <U+W>
-52.878

> <U>
10.067

> <W>
-62.945

> <W(PB)>
-64.982

> <W(SA)>
2.037

> <Valence>
2.779

> <Coulomb>
6.474

> <VdW>
0.815

> <VdW6>
-5.088

> <VdW12>
5.902

> <Bond>
0.078

> <Angle>
2.651

> <Pdih>
0.050

> <Idih>
0.000

> <Tether>
0.000

$$$$
VeraChem MOL file


 17 16  0  0  0  0  0  0  0  0999 V2000     
   18.5744   20.1454   24.5377 C   0  0  0  0  0  0  0  0  0  0  0  0
   17.9970   19.5369   25.4176 O   0  5  0  0  0  0  0  0  0  0  0  0
   18.3790   21.3251   24.3130 O   0  0  0  0  0  0  0  0  0  0  0  0
   19.5606   19.3937   23.7152 C   0  0  0  0  0  0  0  0  0  0  0  0
   19.6867   18.3437   23.9689 H   0  0  0  0  0  0  0  0  0  0  0  0
   20.2720   19.9419   22.7039 C   0  0  0  0  0  0  0  0  0  0  0  0
   20.1491   20.9922   22.4408 H   0  0  0  0  0  0  0  0  0  0  0  0
   21.2733   19.1733   21.8666 C   0  0  0  0  0  0  0  0  0  0  0  0
   21.5633   18.2410   22.3701 H   0  0  0  0  0  0  0  0  0  0  0  0
   22.1920   19.7674   21.7716 H   0  0  0  0  0  0  0  0  0  0  0  0
   20.7347   18.8547   20.4547 C   0  0  0  0  0  0  0  0  0  0  0  0
   20.4419   19.7865   19.9513 H   0  0  0  0  0  0  0  0  0  0  0  0
   21.5423   18.4139   19.8540 H   0  0  0  0  0  0  0  0  0  0  0  0
   19.5383   17.8796   20.4814 C   0  0  0  0  0  0  0  0  0  0  0  0
   18.6857   18.3134   21.0200 H   0  0  0  0  0  0  0  0  0  0  0  0
   19.2078   17.6459   19.4611 H   0  0  0  0  0  0  0  0  0  0  0  0
   19.8109   16.9372   20.9740 H   0  0  0  0  0  0  0  0  0  0  0  0
  1  2  1  0  0  0  0
  1  3  2  0  0  0  0
  1  4  1  0  0  0  0
  4  5  1  0  0  0  0
  4  6  2  0  0  0  0
  6  7  1  0  0  0  0
  6  8  1  0  0  0  0
  8  9  1  0  0  0  0
  8 10  1  0  0  0  0
  8 11  1  0  0  0  0
 11 12  1  0  0  0  0
 11 13  1  0  0  0  0
 11 14  1  0  0  0  0
 14 15  1  0  0  0  0
 14 16  1  0  0  0  0
 14 17  1  0  0  0  0
M  END
> <VConfSearch Rank>
156

> <Conf_Id>
45

> <Delta U+W>
0.562

> <U+W>
-52.846

> <U>
10.243

> <W>
-63.089

> <W(PB)>
-65.116

> <W(SA)>
2.026

> <Valence>
2.822

> <Coulomb>
6.637

> <VdW>
0.785

> <VdW6>
-5.216

> <VdW12>
6.001

> <Bond>
0.080

> <Angle>
2.678

> <Pdih>
0.064

> <Idih>
0.000

> <Tether>
0.000

$$$$
VeraChem MOL file


 17 16  0  0  0  0  0  0  0  0999 V2000     
   19.9068   16.7954   19.4686 C   0  0  0  0  0  0  0  0  0  0  0  0
   19.9067   15.5831   19.5586 O   0  5  0  0  0  0  0  0  0  0  0  0
   20.1050   17.3800   18.4202 O   0  0  0  0  0  0  0  0  0  0  0  0
   19.6493   17.5768   20.7085 C   0  0  0  0  0  0  0  0  0  0  0  0
   19.4799   16.9934   21.6106 H   0  0  0  0  0  0  0  0  0  0  0  0
   19.6214   18.9282   20.7556 C   0  0  0  0  0  0  0  0  0  0  0  0
   19.7921   19.5225   19.8582 H   0  0  0  0  0  0  0  0  0  0  0  0
   19.3610   19.7153   22.0212 C   0  0  0  0  0  0  0  0  0  0  0  0
   18.5957   19.2106   22.6266 H   0  0  0  0  0  0  0  0  0  0  0  0
   18.9543   20.7025   21.7633 H   0  0  0  0  0  0  0  0  0  0  0  0
   20.6499   19.8886   22.8504 C   0  0  0  0  0  0  0  0  0  0  0  0
   21.0558   18.9017   23.1129 H   0  0  0  0  0  0  0  0  0  0  0  0
   21.4130   20.3954   22.2434 H   0  0  0  0  0  0  0  0  0  0  0  0
   20.3948   20.6981   24.1377 C   0  0  0  0  0  0  0  0  0  0  0  0
   20.0181   21.7022   23.9023 H   0  0  0  0  0  0  0  0  0  0  0  0
   19.6573   20.1963   24.7777 H   0  0  0  0  0  0  0  0  0  0  0  0
   21.3224   20.8108   24.7139 H   0  0  0  0  0  0  0  0  0  0  0  0
  1  2  1  0  0  0  0
  1  3  2  0  0  0  0
  1  4  1  0  0  0  0
  4  5  1  0  0  0  0
  4  6  2  0  0  0  0
  6  7  1  0  0  0  0
  6  8  1  0  0  0  0
  8  9  1  0  0  0  0
  8 10  1  0  0  0  0
  8 11  1  0  0  0  0
 11 12  1  0  0  0  0
 11 13  1  0  0  0  0
 11 14  1  0  0  0  0
 14 15  1  0  0  0  0
 14 16  1  0  0  0  0
 14 17  1  0  0  0  0
M  END
> <VConfSearch Rank>
157

> <Conf_Id>
36

> <Delta U+W>
0.000

> <U+W>
-53.409

> <U>
9.048

> <W>
-62.457

> <W(PB)>
-64.540

> <W(SA)>
2.084

> <Valence>
2.652

> <Coulomb>
5.578

> <VdW>
0.818

> <VdW6>
-4.534

> <VdW12>
5.352

> <Bond>
0.063

> <Angle>
2.579

> <Pdih>
0.010

> <Idih>
0.000

> <Tether>
0.000

$$$$
VeraChem MOL file


 17 16  0  0  0  0  0  0  0  0999 V2000     
   19.2237   15.9114   22.7063 C   0  0  0  0  0  0  0  0  0  0  0  0
   19.3158   15.8161   23.9158 O   0  5  0  0  0  0  0  0  0  0  0  0
   19.0845   14.9488   21.9771 O   0  0  0  0  0  0  0  0  0  0  0  0
   19.2799   17.2546   22.0686 C   0  0  0  0  0  0  0  0  0  0  0  0
   19.1915   17.2695   20.9847 H   0  0  0  0  0  0  0  0  0  0  0  0
   19.4324   18.4094   22.7558 C   0  0  0  0  0  0  0  0  0  0  0  0
   19.5241   18.4059   23.8418 H   0  0  0  0  0  0  0  0  0  0  0  0
   19.4904   19.7714   22.0993 C   0  0  0  0  0  0  0  0  0  0  0  0
   19.1760   20.5399   22.8183 H   0  0  0  0  0  0  0  0  0  0  0  0
   18.7791   19.8159   21.2633 H   0  0  0  0  0  0  0  0  0  0  0  0
   20.9114   20.0903   21.5914 C   0  0  0  0  0  0  0  0  0  0  0  0
   21.6206   20.0473   22.4297 H   0  0  0  0  0  0  0  0  0  0  0  0
   21.2259   19.3245   20.8688 H   0  0  0  0  0  0  0  0  0  0  0  0
   20.9810   21.4810   20.9291 C   0  0  0  0  0  0  0  0  0  0  0  0
   20.7015   22.2694   21.6402 H   0  0  0  0  0  0  0  0  0  0  0  0
   21.9987   21.6900   20.5744 H   0  0  0  0  0  0  0  0  0  0  0  0
   20.3030   21.5402   20.0675 H   0  0  0  0  0  0  0  0  0  0  0  0
  1  2  1  0  0  0  0
  1  3  2  0  0  0  0
  1  4  1  0  0  0  0
  4  5  1  0  0  0  0
  4  6  2  0  0  0  0
  6  7  1  0  0  0  0
  6  8  1  0  0  0  0
  8  9  1  0  0  0  0
  8 10  1  0  0  0  0
  8 11  1  0  0  0  0
 11 12  1  0  0  0  0
 11 13  1  0  0  0  0
 11 14  1  0  0  0  0
 14 15  1  0  0  0  0
 14 16  1  0  0  0  0
 14 17  1  0  0  0  0
M  END
> <VConfSearch Rank>
158

> <Conf_Id>
1

> <Delta U+W>
0.030

> <U+W>
-53.378

> <U>
9.048

> <W>
-62.426

> <W(PB)>
-64.506

> <W(SA)>
2.080

> <Valence>
2.652

> <Coulomb>
5.578

> <VdW>
0.818

> <VdW6>
-4.535

> <VdW12>
5.352

> <Bond>
0.063

> <Angle>
2.579

> <Pdih>
0.010

> <Idih>
0.000

> <Tether>
0.000

$$$$
VeraChem MOL file


 17 16  0  0  0  0  0  0  0  0999 V2000     
   18.7422   21.8926   22.1496 C   0  0  0  0  0  0  0  0  0  0  0  0
   19.2887   22.4153   21.1965 O   0  5  0  0  0  0  0  0  0  0  0  0
   17.7504   22.3565   22.6777 O   0  0  0  0  0  0  0  0  0  0  0  0
   19.2952   20.6316   22.7139 C   0  0  0  0  0  0  0  0  0  0  0  0
   18.7599   20.2177   23.5653 H   0  0  0  0  0  0  0  0  0  0  0  0
   20.3901   20.0046   22.2271 C   0  0  0  0  0  0  0  0  0  0  0  0
   20.9320   20.4088   21.3723 H   0  0  0  0  0  0  0  0  0  0  0  0
   20.9449   18.7193   22.8042 C   0  0  0  0  0  0  0  0  0  0  0  0
   20.8977   18.7575   23.9010 H   0  0  0  0  0  0  0  0  0  0  0  0
   22.0083   18.6233   22.5467 H   0  0  0  0  0  0  0  0  0  0  0  0
   20.1789   17.4734   22.3076 C   0  0  0  0  0  0  0  0  0  0  0  0
   20.5538   16.5867   22.8371 H   0  0  0  0  0  0  0  0  0  0  0  0
   19.1147   17.5660   22.5650 H   0  0  0  0  0  0  0  0  0  0  0  0
   20.3289   17.2540   20.7871 C   0  0  0  0  0  0  0  0  0  0  0  0
   21.3852   17.1461   20.5082 H   0  0  0  0  0  0  0  0  0  0  0  0
   19.8012   16.3437   20.4746 H   0  0  0  0  0  0  0  0  0  0  0  0
   19.9095   18.0967   20.2220 H   0  0  0  0  0  0  0  0  0  0  0  0
  1  2  1  0  0  0  0
  1  3  2  0  0  0  0
  1  4  1  0  0  0  0
  4  5  1  0  0  0  0
  4  6  2  0  0  0  0
  6  7  1  0  0  0  0
  6  8  1  0  0  0  0
  8  9  1  0  0  0  0
  8 10  1  0  0  0  0
  8 11  1  0  0  0  0
 11 12  1  0  0  0  0
 11 13  1  0  0  0  0
 11 14  1  0  0  0  0
 14 15  1  0  0  0  0
 14 16  1  0  0  0  0
 14 17  1  0  0  0  0
M  END
> <VConfSearch Rank>
159

> <Conf_Id>
3

> <Delta U+W>
0.531

> <U+W>
-52.878

> <U>
10.067

> <W>
-62.945

> <W(PB)>
-64.982

> <W(SA)>
2.037

> <Valence>
2.779

> <Coulomb>
6.474

> <VdW>
0.815

> <VdW6>
-5.088

> <VdW12>
5.902

> <Bond>
0.078

> <Angle>
2.651

> <Pdih>
0.050

> <Idih>
0.000

> <Tether>
0.000

$$$$
VeraChem MOL file


 17 16  0  0  0  0  0  0  0  0999 V2000     
   19.9535   20.2384   24.8731 C   0  0  0  0  0  0  0  0  0  0  0  0
   19.2647   19.9342   25.8275 O   0  5  0  0  0  0  0  0  0  0  0  0
   20.5188   21.3120   24.7822 O   0  0  0  0  0  0  0  0  0  0  0  0
   20.0986   19.2362   23.7829 C   0  0  0  0  0  0  0  0  0  0  0  0
   19.5675   18.2983   23.9277 H   0  0  0  0  0  0  0  0  0  0  0  0
   20.8307   19.4405   22.6641 C   0  0  0  0  0  0  0  0  0  0  0  0
   21.3630   20.3787   22.5094 H   0  0  0  0  0  0  0  0  0  0  0  0
   20.9743   18.4192   21.5547 C   0  0  0  0  0  0  0  0  0  0  0  0
   20.6803   17.4213   21.9076 H   0  0  0  0  0  0  0  0  0  0  0  0
   22.0329   18.3434   21.2722 H   0  0  0  0  0  0  0  0  0  0  0  0
   20.1479   18.7918   20.3044 C   0  0  0  0  0  0  0  0  0  0  0  0
   20.4396   19.7910   19.9522 H   0  0  0  0  0  0  0  0  0  0  0  0
   20.3887   18.0906   19.4934 H   0  0  0  0  0  0  0  0  0  0  0  0
   18.6269   18.7555   20.5653 C   0  0  0  0  0  0  0  0  0  0  0  0
   18.3380   19.4914   21.3270 H   0  0  0  0  0  0  0  0  0  0  0  0
   18.0720   18.9867   19.6469 H   0  0  0  0  0  0  0  0  0  0  0  0
   18.3115   17.7626   20.9113 H   0  0  0  0  0  0  0  0  0  0  0  0
  1  2  1  0  0  0  0
  1  3  2  0  0  0  0
  1  4  1  0  0  0  0
  4  5  1  0  0  0  0
  4  6  2  0  0  0  0
  6  7  1  0  0  0  0
  6  8  1  0  0  0  0
  8  9  1  0  0  0  0
  8 10  1  0  0  0  0
  8 11  1  0  0  0  0
 11 12  1  0  0  0  0
 11 13  1  0  0  0  0
 11 14  1  0  0  0  0
 14 15  1  0  0  0  0
 14 16  1  0  0  0  0
 14 17  1  0  0  0  0
M  END
> <VConfSearch Rank>
160

> <Conf_Id>
45

> <Delta U+W>
0.562

> <U+W>
-52.846

> <U>
10.243

> <W>
-63.089

> <W(PB)>
-65.116

> <W(SA)>
2.026

> <Valence>
2.822

> <Coulomb>
6.637

> <VdW>
0.785

> <VdW6>
-5.216

> <VdW12>
6.001

> <Bond>
0.080

> <Angle>
2.678

> <Pdih>
0.064

> <Idih>
0.000

> <Tether>
0.000

$$$$
VeraChem MOL file


 17 16  0  0  0  0  0  0  0  0999 V2000     
   20.5325   19.0439   25.2424 C   0  0  0  0  0  0  0  0  0  0  0  0
   20.6711   19.9679   26.0201 O   0  5  0  0  0  0  0  0  0  0  0  0
   20.7983   17.8921   25.5309 O   0  0  0  0  0  0  0  0  0  0  0  0
   20.0123   19.3602   23.8847 C   0  0  0  0  0  0  0  0  0  0  0  0
   19.7949   20.4083   23.6920 H   0  0  0  0  0  0  0  0  0  0  0  0
   19.8101   18.4338   22.9203 C   0  0  0  0  0  0  0  0  0  0  0  0
   20.0269   17.3812   23.1019 H   0  0  0  0  0  0  0  0  0  0  0  0
   19.2827   18.7641   21.5412 C   0  0  0  0  0  0  0  0  0  0  0  0
   18.5106   19.5424   21.6109 H   0  0  0  0  0  0  0  0  0  0  0  0
   18.7956   17.8783   21.1118 H   0  0  0  0  0  0  0  0  0  0  0  0
   20.4142   19.2356   20.6050 C   0  0  0  0  0  0  0  0  0  0  0  0
   20.8999   20.1244   21.0311 H   0  0  0  0  0  0  0  0  0  0  0  0
   21.1842   18.4547   20.5353 H   0  0  0  0  0  0  0  0  0  0  0  0
   19.8863   19.5654   19.1943 C   0  0  0  0  0  0  0  0  0  0  0  0
   19.4232   18.6838   18.7319 H   0  0  0  0  0  0  0  0  0  0  0  0
   19.1362   20.3663   19.2328 H   0  0  0  0  0  0  0  0  0  0  0  0
   20.7048   19.8988   18.5432 H   0  0  0  0  0  0  0  0  0  0  0  0
  1  2  1  0  0  0  0
  1  3  2  0  0  0  0
  1  4  1  0  0  0  0
  4  5  1  0  0  0  0
  4  6  2  0  0  0  0
  6  7  1  0  0  0  0
  6  8  1  0  0  0  0
  8  9  1  0  0  0  0
  8 10  1  0  0  0  0
  8 11  1  0  0  0  0
 11 12  1  0  0  0  0
 11 13  1  0  0  0  0
 11 14  1  0  0  0  0
 14 15  1  0  0  0  0
 14 16  1  0  0  0  0
 14 17  1  0  0  0  0
M  END
> <VConfSearch Rank>
161

> <Conf_Id>
36

> <Delta U+W>
0.000

> <U+W>
-53.409

> <U>
9.048

> <W>
-62.457

> <W(PB)>
-64.540

> <W(SA)>
2.084

> <Valence>
2.652

> <Coulomb>
5.578

> <VdW>
0.818

> <VdW6>
-4.534

> <VdW12>
5.352

> <Bond>
0.063

> <Angle>
2.579

> <Pdih>
0.010

> <Idih>
0.000

> <Tether>
0.000

$$$$
VeraChem MOL file


 17 16  0  0  0  0  0  0  0  0999 V2000     
   20.6925   18.9872   18.6112 C   0  0  0  0  0  0  0  0  0  0  0  0
   21.8226   18.5507   18.4973 O   0  5  0  0  0  0  0  0  0  0  0  0
   20.0762   19.4736   17.6832 O   0  0  0  0  0  0  0  0  0  0  0  0
   20.0137   18.9329   19.9342 C   0  0  0  0  0  0  0  0  0  0  0  0
   19.0055   19.3394   19.9674 H   0  0  0  0  0  0  0  0  0  0  0  0
   20.5792   18.4210   21.0511 C   0  0  0  0  0  0  0  0  0  0  0  0
   21.5896   18.0132   21.0296 H   0  0  0  0  0  0  0  0  0  0  0  0
   19.8825   18.3713   22.3933 C   0  0  0  0  0  0  0  0  0  0  0  0
   20.3100   17.5615   22.9998 H   0  0  0  0  0  0  0  0  0  0  0  0
   18.8194   18.1311   22.2559 H   0  0  0  0  0  0  0  0  0  0  0  0
   20.0206   19.7094   23.1479 C   0  0  0  0  0  0  0  0  0  0  0  0
   21.0847   19.9464   23.2860 H   0  0  0  0  0  0  0  0  0  0  0  0
   19.5896   20.5202   22.5442 H   0  0  0  0  0  0  0  0  0  0  0  0
   19.3209   19.6639   24.5212 C   0  0  0  0  0  0  0  0  0  0  0  0
   19.7547   18.8813   25.1576 H   0  0  0  0  0  0  0  0  0  0  0  0
   19.4298   20.6237   25.0428 H   0  0  0  0  0  0  0  0  0  0  0  0
   18.2481   19.4590   24.4090 H   0  0  0  0  0  0  0  0  0  0  0  0
  1  2  1  0  0  0  0
  1  3  2  0  0  0  0
  1  4  1  0  0  0  0
  4  5  1  0  0  0  0
  4  6  2  0  0  0  0
  6  7  1  0  0  0  0
  6  8  1  0  0  0  0
  8  9  1  0  0  0  0
  8 10  1  0  0  0  0
  8 11  1  0  0  0  0
 11 12  1  0  0  0  0
 11 13  1  0  0  0  0
 11 14  1  0  0  0  0
 14 15  1  0  0  0  0
 14 16  1  0  0  0  0
 14 17  1  0  0  0  0
M  END
> <VConfSearch Rank>
162

> <Conf_Id>
1

> <Delta U+W>
0.030

> <U+W>
-53.378

> <U>
9.048

> <W>
-62.426

> <W(PB)>
-64.506

> <W(SA)>
2.080

> <Valence>
2.652

> <Coulomb>
5.578

> <VdW>
0.818

> <VdW6>
-4.535

> <VdW12>
5.352

> <Bond>
0.063

> <Angle>
2.579

> <Pdih>
0.010

> <Idih>
0.000

> <Tether>
0.000

$$$$
VeraChem MOL file


 17 16  0  0  0  0  0  0  0  0999 V2000     
   17.9170   17.4868   23.6405 C   0  0  0  0  0  0  0  0  0  0  0  0
   18.6167   16.6035   24.0994 O   0  5  0  0  0  0  0  0  0  0  0  0
   16.8019   17.7300   24.0592 O   0  0  0  0  0  0  0  0  0  0  0  0
   18.4247   18.3171   22.5149 C   0  0  0  0  0  0  0  0  0  0  0  0
   17.7493   19.0881   22.1514 H   0  0  0  0  0  0  0  0  0  0  0  0
   19.6442   18.1589   21.9520 C   0  0  0  0  0  0  0  0  0  0  0  0
   20.3302   17.3918   22.3107 H   0  0  0  0  0  0  0  0  0  0  0  0
   20.1557   19.0104   20.8091 C   0  0  0  0  0  0  0  0  0  0  0  0
   19.3456   19.1841   20.0880 H   0  0  0  0  0  0  0  0  0  0  0  0
   20.9406   18.4696   20.2634 H   0  0  0  0  0  0  0  0  0  0  0  0
   20.7054   20.3712   21.2904 C   0  0  0  0  0  0  0  0  0  0  0  0
   20.9624   20.9845   20.4157 H   0  0  0  0  0  0  0  0  0  0  0  0
   19.9218   20.9153   21.8358 H   0  0  0  0  0  0  0  0  0  0  0  0
   21.9538   20.2216   22.1859 C   0  0  0  0  0  0  0  0  0  0  0  0
   22.7557   19.6910   21.6562 H   0  0  0  0  0  0  0  0  0  0  0  0
   22.3369   21.2068   22.4816 H   0  0  0  0  0  0  0  0  0  0  0  0
   21.7197   19.6631   23.1016 H   0  0  0  0  0  0  0  0  0  0  0  0
  1  2  1  0  0  0  0
  1  3  2  0  0  0  0
  1  4  1  0  0  0  0
  4  5  1  0  0  0  0
  4  6  2  0  0  0  0
  6  7  1  0  0  0  0
  6  8  1  0  0  0  0
  8  9  1  0  0  0  0
  8 10  1  0  0  0  0
  8 11  1  0  0  0  0
 11 12  1  0  0  0  0
 11 13  1  0  0  0  0
 11 14  1  0  0  0  0
 14 15  1  0  0  0  0
 14 16  1  0  0  0  0
 14 17  1  0  0  0  0
M  END
> <VConfSearch Rank>
163

> <Conf_Id>
3

> <Delta U+W>
0.531

> <U+W>
-52.878

> <U>
10.067

> <W>
-62.945

> <W(PB)>
-64.982

> <W(SA)>
2.037

> <Valence>
2.779

> <Coulomb>
6.474

> <VdW>
0.815

> <VdW6>
-5.088

> <VdW12>
5.902

> <Bond>
0.078

> <Angle>
2.651

> <Pdih>
0.050

> <Idih>
0.000

> <Tether>
0.000

$$$$
VeraChem MOL file


 17 16  0  0  0  0  0  0  0  0999 V2000     
   19.8196   17.6976   19.4067 C   0  0  0  0  0  0  0  0  0  0  0  0
   20.7075   17.2115   18.7336 O   0  5  0  0  0  0  0  0  0  0  0  0
   18.7403   18.0173   18.9447 O   0  0  0  0  0  0  0  0  0  0  0  0
   20.0872   17.8974   20.8567 C   0  0  0  0  0  0  0  0  0  0  0  0
   21.0710   17.5903   21.2038 H   0  0  0  0  0  0  0  0  0  0  0  0
   19.1933   18.4286   21.7218 C   0  0  0  0  0  0  0  0  0  0  0  0
   18.2066   18.7423   21.3818 H   0  0  0  0  0  0  0  0  0  0  0  0
   19.4696   18.6334   23.1969 C   0  0  0  0  0  0  0  0  0  0  0  0
   20.3309   18.0308   23.5160 H   0  0  0  0  0  0  0  0  0  0  0  0
   18.6108   18.2691   23.7764 H   0  0  0  0  0  0  0  0  0  0  0  0
   19.7165   20.1173   23.5466 C   0  0  0  0  0  0  0  0  0  0  0  0
   18.8565   20.7212   23.2254 H   0  0  0  0  0  0  0  0  0  0  0  0
   19.7832   20.2220   24.6383 H   0  0  0  0  0  0  0  0  0  0  0  0
   21.0085   20.6708   22.9085 C   0  0  0  0  0  0  0  0  0  0  0  0
   20.9527   20.6423   21.8125 H   0  0  0  0  0  0  0  0  0  0  0  0
   21.1717   21.7136   23.2098 H   0  0  0  0  0  0  0  0  0  0  0  0
   21.8830   20.0862   23.2223 H   0  0  0  0  0  0  0  0  0  0  0  0
  1  2  1  0  0  0  0
  1  3  2  0  0  0  0
  1  4  1  0  0  0  0
  4  5  1  0  0  0  0
  4  6  2  0  0  0  0
  6  7  1  0  0  0  0
  6  8  1  0  0  0  0
  8  9  1  0  0  0  0
  8 10  1  0  0  0  0
  8 11  1  0  0  0  0
 11 12  1  0  0  0  0
 11 13  1  0  0  0  0
 11 14  1  0  0  0  0
 14 15  1  0  0  0  0
 14 16  1  0  0  0  0
 14 17  1  0  0  0  0
M  END
> <VConfSearch Rank>
164

> <Conf_Id>
45

> <Delta U+W>
0.562

> <U+W>
-52.846

> <U>
10.243

> <W>
-63.089

> <W(PB)>
-65.116

> <W(SA)>
2.026

> <Valence>
2.822

> <Coulomb>
6.637

> <VdW>
0.785

> <VdW6>
-5.216

> <VdW12>
6.001

> <Bond>
0.080

> <Angle>
2.678

> <Pdih>
0.064

> <Idih>
0.000

> <Tether>
0.000

$$$$
VeraChem MOL file


 17 16  0  0  0  0  0  0  0  0999 V2000     
   22.0131   17.5138   19.7397 C   0  0  0  0  0  0  0  0  0  0  0  0
   21.8905   17.3684   18.5391 O   0  5  0  0  0  0  0  0  0  0  0  0
   22.8144   16.8828   20.4032 O   0  0  0  0  0  0  0  0  0  0  0  0
   21.1347   18.5141   20.4044 C   0  0  0  0  0  0  0  0  0  0  0  0
   20.4414   19.0432   19.7545 H   0  0  0  0  0  0  0  0  0  0  0  0
   21.1620   18.7781   21.7306 C   0  0  0  0  0  0  0  0  0  0  0  0
   21.8509   18.2522   22.3913 H   0  0  0  0  0  0  0  0  0  0  0  0
   20.2636   19.7956   22.3991 C   0  0  0  0  0  0  0  0  0  0  0  0
   20.1426   20.6736   21.7501 H   0  0  0  0  0  0  0  0  0  0  0  0
   20.7369   20.1531   23.3235 H   0  0  0  0  0  0  0  0  0  0  0  0
   18.8808   19.1954   22.7259 C   0  0  0  0  0  0  0  0  0  0  0  0
   18.4041   18.8410   21.8015 H   0  0  0  0  0  0  0  0  0  0  0  0
   19.0043   18.3186   23.3768 H   0  0  0  0  0  0  0  0  0  0  0  0
   17.9621   20.2236   23.4162 C   0  0  0  0  0  0  0  0  0  0  0  0
   18.4011   20.5711   24.3606 H   0  0  0  0  0  0  0  0  0  0  0  0
   17.7973   21.0976   22.7725 H   0  0  0  0  0  0  0  0  0  0  0  0
   16.9839   19.7788   23.6406 H   0  0  0  0  0  0  0  0  0  0  0  0
  1  2  1  0  0  0  0
  1  3  2  0  0  0  0
  1  4  1  0  0  0  0
  4  5  1  0  0  0  0
  4  6  2  0  0  0  0
  6  7  1  0  0  0  0
  6  8  1  0  0  0  0
  8  9  1  0  0  0  0
  8 10  1  0  0  0  0
  8 11  1  0  0  0  0
 11 12  1  0  0  0  0
 11 13  1  0  0  0  0
 11 14  1  0  0  0  0
 14 15  1  0  0  0  0
 14 16  1  0  0  0  0
 14 17  1  0  0  0  0
M  END
> <VConfSearch Rank>
165

> <Conf_Id>
36

> <Delta U+W>
0.000

> <U+W>
-53.409

> <U>
9.048

> <W>
-62.457

> <W(PB)>
-64.540

> <W(SA)>
2.084

> <Valence>
2.652

> <Coulomb>
5.578

> <VdW>
0.818

> <VdW6>
-4.534

> <VdW12>
5.352

> <Bond>
0.063

> <Angle>
2.579

> <Pdih>
0.010

> <Idih>
0.000

> <Tether>
0.000

$$$$
VeraChem MOL file


 17 16  0  0  0  0  0  0  0  0999 V2000     
   18.8236   18.9903   25.0679 C   0  0  0  0  0  0  0  0  0  0  0  0
   19.0266   17.8654   25.4849 O   0  5  0  0  0  0  0  0  0  0  0  0
   18.1261   19.7953   25.6536 O   0  0  0  0  0  0  0  0  0  0  0  0
   19.4467   19.4232   23.7879 C   0  0  0  0  0  0  0  0  0  0  0  0
   19.2251   20.4401   23.4722 H   0  0  0  0  0  0  0  0  0  0  0  0
   20.2430   18.6333   23.0322 C   0  0  0  0  0  0  0  0  0  0  0  0
   20.4699   17.6122   23.3380 H   0  0  0  0  0  0  0  0  0  0  0  0
   20.8714   19.0808   21.7306 C   0  0  0  0  0  0  0  0  0  0  0  0
   21.7773   18.4905   21.5374 H   0  0  0  0  0  0  0  0  0  0  0  0
   21.1920   20.1286   21.8090 H   0  0  0  0  0  0  0  0  0  0  0  0
   19.8912   18.9233   20.5501 C   0  0  0  0  0  0  0  0  0  0  0  0
   19.5737   17.8742   20.4724 H   0  0  0  0  0  0  0  0  0  0  0  0
   18.9860   19.5166   20.7399 H   0  0  0  0  0  0  0  0  0  0  0  0
   20.5274   19.3687   19.2180 C   0  0  0  0  0  0  0  0  0  0  0  0
   21.4180   18.7692   18.9880 H   0  0  0  0  0  0  0  0  0  0  0  0
   19.8158   19.2494   18.3907 H   0  0  0  0  0  0  0  0  0  0  0  0
   20.8258   20.4245   19.2588 H   0  0  0  0  0  0  0  0  0  0  0  0
  1  2  1  0  0  0  0
  1  3  2  0  0  0  0
  1  4  1  0  0  0  0
  4  5  1  0  0  0  0
  4  6  2  0  0  0  0
  6  7  1  0  0  0  0
  6  8  1  0  0  0  0
  8  9  1  0  0  0  0
  8 10  1  0  0  0  0
  8 11  1  0  0  0  0
 11 12  1  0  0  0  0
 11 13  1  0  0  0  0
 11 14  1  0  0  0  0
 14 15  1  0  0  0  0
 14 16  1  0  0  0  0
 14 17  1  0  0  0  0
M  END
> <VConfSearch Rank>
166

> <Conf_Id>
1

> <Delta U+W>
0.030

> <U+W>
-53.378

> <U>
9.048

> <W>
-62.426

> <W(PB)>
-64.506

> <W(SA)>
2.080

> <Valence>
2.652

> <Coulomb>
5.578

> <VdW>
0.818

> <VdW6>
-4.535

> <VdW12>
5.352

> <Bond>
0.063

> <Angle>
2.579

> <Pdih>
0.010

> <Idih>
0.000

> <Tether>
0.000

$$$$
VeraChem MOL file


 17 16  0  0  0  0  0  0  0  0999 V2000     
   21.1289   16.2206   22.2539 C   0  0  0  0  0  0  0  0  0  0  0  0
   20.8338   15.9522   23.4034 O   0  5  0  0  0  0  0  0  0  0  0  0
   21.4547   15.3764   21.4420 O   0  0  0  0  0  0  0  0  0  0  0  0
   21.1009   17.6370   21.7989 C   0  0  0  0  0  0  0  0  0  0  0  0
   21.3763   17.8077   20.7608 H   0  0  0  0  0  0  0  0  0  0  0  0
   20.7571   18.6768   22.5925 C   0  0  0  0  0  0  0  0  0  0  0  0
   20.4761   18.5167   23.6332 H   0  0  0  0  0  0  0  0  0  0  0  0
   20.7271   20.1156   22.1213 C   0  0  0  0  0  0  0  0  0  0  0  0
   21.5934   20.3094   21.4745 H   0  0  0  0  0  0  0  0  0  0  0  0
   20.8293   20.7916   22.9808 H   0  0  0  0  0  0  0  0  0  0  0  0
   19.4330   20.4542   21.3491 C   0  0  0  0  0  0  0  0  0  0  0  0
   19.5128   21.4720   20.9432 H   0  0  0  0  0  0  0  0  0  0  0  0
   19.3285   19.7801   20.4877 H   0  0  0  0  0  0  0  0  0  0  0  0
   18.1734   20.3624   22.2367 C   0  0  0  0  0  0  0  0  0  0  0  0
   18.2503   21.0381   23.0985 H   0  0  0  0  0  0  0  0  0  0  0  0
   17.2781   20.6414   21.6661 H   0  0  0  0  0  0  0  0  0  0  0  0
   18.0278   19.3416   22.6133 H   0  0  0  0  0  0  0  0  0  0  0  0
  1  2  1  0  0  0  0
  1  3  2  0  0  0  0
  1  4  1  0  0  0  0
  4  5  1  0  0  0  0
  4  6  2  0  0  0  0
  6  7  1  0  0  0  0
  6  8  1  0  0  0  0
  8  9  1  0  0  0  0
  8 10  1  0  0  0  0
  8 11  1  0  0  0  0
 11 12  1  0  0  0  0
 11 13  1  0  0  0  0
 11 14  1  0  0  0  0
 14 15  1  0  0  0  0
 14 16  1  0  0  0  0
 14 17  1  0  0  0  0
M  END
> <VConfSearch Rank>
167

> <Conf_Id>
3

> <Delta U+W>
0.531

> <U+W>
-52.878

> <U>
10.067

> <W>
-62.945

> <W(PB)>
-64.982

> <W(SA)>
2.037

> <Valence>
2.779

> <Coulomb>
6.474

> <VdW>
0.815

> <VdW6>
-5.088

> <VdW12>
5.902

> <Bond>
0.078

> <Angle>
2.651

> <Pdih>
0.050

> <Idih>
0.000

> <Tether>
0.000

$$$$
VeraChem MOL file


 17 16  0  0  0  0  0  0  0  0999 V2000     
   20.4862   16.8495   20.1281 C   0  0  0  0  0  0  0  0  0  0  0  0
   20.8844   15.7199   20.3363 O   0  5  0  0  0  0  0  0  0  0  0  0
   20.5603   17.3855   19.0384 O   0  0  0  0  0  0  0  0  0  0  0  0
   19.8830   17.5871   21.2710 C   0  0  0  0  0  0  0  0  0  0  0  0
   19.8478   17.0501   22.2160 H   0  0  0  0  0  0  0  0  0  0  0  0
   19.4019   18.8483   21.1842 C   0  0  0  0  0  0  0  0  0  0  0  0
   19.4366   19.3949   20.2421 H   0  0  0  0  0  0  0  0  0  0  0  0
   18.7908   19.5976   22.3502 C   0  0  0  0  0  0  0  0  0  0  0  0
   18.5145   18.9021   23.1543 H   0  0  0  0  0  0  0  0  0  0  0  0
   17.8561   20.0712   22.0215 H   0  0  0  0  0  0  0  0  0  0  0  0
   19.7347   20.6858   22.9070 C   0  0  0  0  0  0  0  0  0  0  0  0
   20.0138   21.3805   22.1026 H   0  0  0  0  0  0  0  0  0  0  0  0
   19.1953   21.2775   23.6594 H   0  0  0  0  0  0  0  0  0  0  0  0
   21.0080   20.0955   23.5497 C   0  0  0  0  0  0  0  0  0  0  0  0
   21.6082   19.5494   22.8105 H   0  0  0  0  0  0  0  0  0  0  0  0
   21.6347   20.8935   23.9683 H   0  0  0  0  0  0  0  0  0  0  0  0
   20.7526   19.4032   24.3624 H   0  0  0  0  0  0  0  0  0  0  0  0
  1  2  1  0  0  0  0
  1  3  2  0  0  0  0
  1  4  1  0  0  0  0
  4  5  1  0  0  0  0
  4  6  2  0  0  0  0
  6  7  1  0  0  0  0
  6  8  1  0  0  0  0
  8  9  1  0  0  0  0
  8 10  1  0  0  0  0
  8 11  1  0  0  0  0
 11 12  1  0  0  0  0
 11 13  1  0  0  0  0
 11 14  1  0  0  0  0
 14 15  1  0  0  0  0
 14 16  1  0  0  0  0
 14 17  1  0  0  0  0
M  END
> <VConfSearch Rank>
168

> <Conf_Id>
45

> <Delta U+W>
0.562

> <U+W>
-52.846

> <U>
10.243

> <W>
-63.089

> <W(PB)>
-65.116

> <W(SA)>
2.026

> <Valence>
2.822

> <Coulomb>
6.637

> <VdW>
0.785

> <VdW6>
-5.216

> <VdW12>
6.001

> <Bond>
0.080

> <Angle>
2.678

> <Pdih>
0.064

> <Idih>
0.000

> <Tether>
0.000

$$$$
VeraChem MOL file


 17 16  0  0  0  0  0  0  0  0999 V2000     
   22.4252   19.7982   19.6774 C   0  0  0  0  0  0  0  0  0  0  0  0
   23.2733   19.0604   19.2147 O   0  5  0  0  0  0  0  0  0  0  0  0
   22.4667   21.0084   19.5593 O   0  0  0  0  0  0  0  0  0  0  0  0
   21.2960   19.1701   20.4154 C   0  0  0  0  0  0  0  0  0  0  0  0
   21.3193   18.0849   20.4843 H   0  0  0  0  0  0  0  0  0  0  0  0
   20.2853   19.8674   20.9821 C   0  0  0  0  0  0  0  0  0  0  0  0
   20.2534   20.9551   20.9211 H   0  0  0  0  0  0  0  0  0  0  0  0
   19.1417   19.2210   21.7328 C   0  0  0  0  0  0  0  0  0  0  0  0
   18.8440   18.2889   21.2336 H   0  0  0  0  0  0  0  0  0  0  0  0
   18.2651   19.8824   21.7081 H   0  0  0  0  0  0  0  0  0  0  0  0
   19.5257   18.9274   23.1975 C   0  0  0  0  0  0  0  0  0  0  0  0
   20.4001   18.2624   23.2239 H   0  0  0  0  0  0  0  0  0  0  0  0
   19.8210   19.8615   23.6952 H   0  0  0  0  0  0  0  0  0  0  0  0
   18.3619   18.2770   23.9722 C   0  0  0  0  0  0  0  0  0  0  0  0
   17.4838   18.9358   23.9885 H   0  0  0  0  0  0  0  0  0  0  0  0
   18.0676   17.3245   23.5123 H   0  0  0  0  0  0  0  0  0  0  0  0
   18.6537   18.0756   25.0112 H   0  0  0  0  0  0  0  0  0  0  0  0
  1  2  1  0  0  0  0
  1  3  2  0  0  0  0
  1  4  1  0  0  0  0
  4  5  1  0  0  0  0
  4  6  2  0  0  0  0
  6  7  1  0  0  0  0
  6  8  1  0  0  0  0
  8  9  1  0  0  0  0
  8 10  1  0  0  0  0
  8 11  1  0  0  0  0
 11 12  1  0  0  0  0
 11 13  1  0  0  0  0
 11 14  1  0  0  0  0
 14 15  1  0  0  0  0
 14 16  1  0  0  0  0
 14 17  1  0  0  0  0
M  END
> <VConfSearch Rank>
169

> <Conf_Id>
36

> <Delta U+W>
0.000

> <U+W>
-53.409

> <U>
9.048

> <W>
-62.457

> <W(PB)>
-64.540

> <W(SA)>
2.084

> <Valence>
2.652

> <Coulomb>
5.578

> <VdW>
0.818

> <VdW6>
-4.534

> <VdW12>
5.352

> <Bond>
0.063

> <Angle>
2.579

> <Pdih>
0.010

> <Idih>
0.000

> <Tether>
0.000

$$$$
VeraChem MOL file


 17 16  0  0  0  0  0  0  0  0999 V2000     
   17.0979   19.9093   23.3994 C   0  0  0  0  0  0  0  0  0  0  0  0
   17.2067   21.0592   23.7817 O   0  5  0  0  0  0  0  0  0  0  0  0
   16.1716   19.1912   23.7221 O   0  0  0  0  0  0  0  0  0  0  0  0
   18.1308   19.3346   22.4955 C   0  0  0  0  0  0  0  0  0  0  0  0
   17.9737   18.3023   22.1911 H   0  0  0  0  0  0  0  0  0  0  0  0
   19.2133   20.0169   22.0578 C   0  0  0  0  0  0  0  0  0  0  0  0
   19.3815   21.0509   22.3584 H   0  0  0  0  0  0  0  0  0  0  0  0
   20.2601   19.4244   21.1400 C   0  0  0  0  0  0  0  0  0  0  0  0
   20.7601   20.2291   20.5844 H   0  0  0  0  0  0  0  0  0  0  0  0
   19.7811   18.7786   20.3915 H   0  0  0  0  0  0  0  0  0  0  0  0
   21.3081   18.6153   21.9313 C   0  0  0  0  0  0  0  0  0  0  0  0
   21.7873   19.2638   22.6779 H   0  0  0  0  0  0  0  0  0  0  0  0
   20.8099   17.8070   22.4847 H   0  0  0  0  0  0  0  0  0  0  0  0
   22.3840   18.0156   21.0038 C   0  0  0  0  0  0  0  0  0  0  0  0
   22.9198   18.8055   20.4613 H   0  0  0  0  0  0  0  0  0  0  0  0
   23.1200   17.4441   21.5842 H   0  0  0  0  0  0  0  0  0  0  0  0
   21.9338   17.3379   20.2666 H   0  0  0  0  0  0  0  0  0  0  0  0
  1  2  1  0  0  0  0
  1  3  2  0  0  0  0
  1  4  1  0  0  0  0
  4  5  1  0  0  0  0
  4  6  2  0  0  0  0
  6  7  1  0  0  0  0
  6  8  1  0  0  0  0
  8  9  1  0  0  0  0
  8 10  1  0  0  0  0
  8 11  1  0  0  0  0
 11 12  1  0  0  0  0
 11 13  1  0  0  0  0
 11 14  1  0  0  0  0
 14 15  1  0  0  0  0
 14 16  1  0  0  0  0
 14 17  1  0  0  0  0
M  END
> <VConfSearch Rank>
170

> <Conf_Id>
1

> <Delta U+W>
0.030

> <U+W>
-53.378

> <U>
9.048

> <W>
-62.426

> <W(PB)>
-64.506

> <W(SA)>
2.080

> <Valence>
2.652

> <Coulomb>
5.578

> <VdW>
0.818

> <VdW6>
-4.535

> <VdW12>
5.352

> <Bond>
0.063

> <Angle>
2.579

> <Pdih>
0.010

> <Idih>
0.000

> <Tether>
0.000

$$$$
VeraChem MOL file


 17 16  0  0  0  0  0  0  0  0999 V2000     
   17.6736   18.1229   20.2954 C   0  0  0  0  0  0  0  0  0  0  0  0
   17.7337   18.9300   19.3869 O   0  5  0  0  0  0  0  0  0  0  0  0
   17.0409   17.0878   20.2178 O   0  0  0  0  0  0  0  0  0  0  0  0
   18.3949   18.3937   21.5684 C   0  0  0  0  0  0  0  0  0  0  0  0
   18.2991   17.6328   22.3395 H   0  0  0  0  0  0  0  0  0  0  0  0
   19.1369   19.5018   21.7932 C   0  0  0  0  0  0  0  0  0  0  0  0
   19.2424   20.2690   21.0264 H   0  0  0  0  0  0  0  0  0  0  0  0
   19.8715   19.7688   23.0902 C   0  0  0  0  0  0  0  0  0  0  0  0
   19.2419   19.4682   23.9386 H   0  0  0  0  0  0  0  0  0  0  0  0
   20.0455   20.8471   23.2050 H   0  0  0  0  0  0  0  0  0  0  0  0
   21.2185   19.0172   23.1681 C   0  0  0  0  0  0  0  0  0  0  0  0
   21.6538   19.1628   24.1663 H   0  0  0  0  0  0  0  0  0  0  0  0
   21.0475   17.9377   23.0548 H   0  0  0  0  0  0  0  0  0  0  0  0
   22.2268   19.4984   22.1030 C   0  0  0  0  0  0  0  0  0  0  0  0
   22.4228   20.5737   22.2053 H   0  0  0  0  0  0  0  0  0  0  0  0
   23.1821   18.9682   22.2085 H   0  0  0  0  0  0  0  0  0  0  0  0
   21.8498   19.3136   21.0886 H   0  0  0  0  0  0  0  0  0  0  0  0
  1  2  1  0  0  0  0
  1  3  2  0  0  0  0
  1  4  1  0  0  0  0
  4  5  1  0  0  0  0
  4  6  2  0  0  0  0
  6  7  1  0  0  0  0
  6  8  1  0  0  0  0
  8  9  1  0  0  0  0
  8 10  1  0  0  0  0
  8 11  1  0  0  0  0
 11 12  1  0  0  0  0
 11 13  1  0  0  0  0
 11 14  1  0  0  0  0
 14 15  1  0  0  0  0
 14 16  1  0  0  0  0
 14 17  1  0  0  0  0
M  END
> <VConfSearch Rank>
171

> <Conf_Id>
3

> <Delta U+W>
0.531

> <U+W>
-52.878

> <U>
10.067

> <W>
-62.945

> <W(PB)>
-64.982

> <W(SA)>
2.037

> <Valence>
2.779

> <Coulomb>
6.474

> <VdW>
0.815

> <VdW6>
-5.088

> <VdW12>
5.902

> <Bond>
0.078

> <Angle>
2.651

> <Pdih>
0.050

> <Idih>
0.000

> <Tether>
0.000

$$$$
VeraChem MOL file


 17 16  0  0  0  0  0  0  0  0999 V2000     
   19.1116   21.0778   19.9657 C   0  0  0  0  0  0  0  0  0  0  0  0
   18.2695   20.9641   19.0964 O   0  5  0  0  0  0  0  0  0  0  0  0
   20.0108   21.8956   19.9111 O   0  0  0  0  0  0  0  0  0  0  0  0
   19.0153   20.1680   21.1392 C   0  0  0  0  0  0  0  0  0  0  0  0
   18.1884   19.4617   21.1246 H   0  0  0  0  0  0  0  0  0  0  0  0
   19.8831   20.1818   22.1767 C   0  0  0  0  0  0  0  0  0  0  0  0
   20.7164   20.8837   22.1975 H   0  0  0  0  0  0  0  0  0  0  0  0
   19.7840   19.2524   23.3686 C   0  0  0  0  0  0  0  0  0  0  0  0
   18.7824   18.8053   23.4278 H   0  0  0  0  0  0  0  0  0  0  0  0
   19.9126   19.8361   24.2899 H   0  0  0  0  0  0  0  0  0  0  0  0
   20.8496   18.1351   23.3308 C   0  0  0  0  0  0  0  0  0  0  0  0
   21.8518   18.5815   23.2690 H   0  0  0  0  0  0  0  0  0  0  0  0
   20.8139   17.5737   24.2746 H   0  0  0  0  0  0  0  0  0  0  0  0
   20.6425   17.1563   22.1553 C   0  0  0  0  0  0  0  0  0  0  0  0
   20.7356   17.6710   21.1902 H   0  0  0  0  0  0  0  0  0  0  0  0
   21.3926   16.3554   22.1830 H   0  0  0  0  0  0  0  0  0  0  0  0
   19.6488   16.6921   22.2015 H   0  0  0  0  0  0  0  0  0  0  0  0
  1  2  1  0  0  0  0
  1  3  2  0  0  0  0
  1  4  1  0  0  0  0
  4  5  1  0  0  0  0
  4  6  2  0  0  0  0
  6  7  1  0  0  0  0
  6  8  1  0  0  0  0
  8  9  1  0  0  0  0
  8 10  1  0  0  0  0
  8 11  1  0  0  0  0
 11 12  1  0  0  0  0
 11 13  1  0  0  0  0
 11 14  1  0  0  0  0
 14 15  1  0  0  0  0
 14 16  1  0  0  0  0
 14 17  1  0  0  0  0
M  END
> <VConfSearch Rank>
172

> <Conf_Id>
45

> <Delta U+W>
0.562

> <U+W>
-52.846

> <U>
10.243

> <W>
-63.089

> <W(PB)>
-65.116

> <W(SA)>
2.026

> <Valence>
2.822

> <Coulomb>
6.637

> <VdW>
0.785

> <VdW6>
-5.216

> <VdW12>
6.001

> <Bond>
0.080

> <Angle>
2.678

> <Pdih>
0.064

> <Idih>
0.000

> <Tether>
0.000

$$$$
VeraChem MOL file


 17 16  0  0  0  0  0  0  0  0999 V2000     
   20.0474   21.8824   23.8451 C   0  0  0  0  0  0  0  0  0  0  0  0
   20.2404   21.9817   25.0412 O   0  5  0  0  0  0  0  0  0  0  0  0
   19.6072   22.7933   23.1692 O   0  0  0  0  0  0  0  0  0  0  0  0
   20.3729   20.5807   23.2019 C   0  0  0  0  0  0  0  0  0  0  0  0
   20.7624   19.8093   23.8623 H   0  0  0  0  0  0  0  0  0  0  0  0
   20.2076   20.3293   21.8834 C   0  0  0  0  0  0  0  0  0  0  0  0
   19.8159   21.0943   21.2132 H   0  0  0  0  0  0  0  0  0  0  0  0
   20.5390   19.0018   21.2375 C   0  0  0  0  0  0  0  0  0  0  0  0
   21.4538   18.5861   21.6815 H   0  0  0  0  0  0  0  0  0  0  0  0
   20.7510   19.1546   20.1707 H   0  0  0  0  0  0  0  0  0  0  0  0
   19.3805   17.9958   21.3946 C   0  0  0  0  0  0  0  0  0  0  0  0
   19.1699   17.8386   22.4616 H   0  0  0  0  0  0  0  0  0  0  0  0
   18.4672   18.4129   20.9479 H   0  0  0  0  0  0  0  0  0  0  0  0
   19.7067   16.6429   20.7306 C   0  0  0  0  0  0  0  0  0  0  0  0
   19.8906   16.7671   19.6553 H   0  0  0  0  0  0  0  0  0  0  0  0
   20.5994   16.1893   21.1810 H   0  0  0  0  0  0  0  0  0  0  0  0
   18.8717   15.9408   20.8527 H   0  0  0  0  0  0  0  0  0  0  0  0
  1  2  1  0  0  0  0
  1  3  2  0  0  0  0
  1  4  1  0  0  0  0
  4  5  1  0  0  0  0
  4  6  2  0  0  0  0
  6  7  1  0  0  0  0
  6  8  1  0  0  0  0
  8  9  1  0  0  0  0
  8 10  1  0  0  0  0
  8 11  1  0  0  0  0
 11 12  1  0  0  0  0
 11 13  1  0  0  0  0
 11 14  1  0  0  0  0
 14 15  1  0  0  0  0
 14 16  1  0  0  0  0
 14 17  1  0  0  0  0
M  END
> <VConfSearch Rank>
173

> <Conf_Id>
36

> <Delta U+W>
0.000

> <U+W>
-53.409

> <U>
9.048

> <W>
-62.457

> <W(PB)>
-64.540

> <W(SA)>
2.084

> <Valence>
2.652

> <Coulomb>
5.578

> <VdW>
0.818

> <VdW6>
-4.534

> <VdW12>
5.352

> <Bond>
0.063

> <Angle>
2.579

> <Pdih>
0.010

> <Idih>
0.000

> <Tether>
0.000

$$$$
VeraChem MOL file


 17 16  0  0  0  0  0  0  0  0999 V2000     
   23.0443   18.8651   20.4496 C   0  0  0  0  0  0  0  0  0  0  0  0
   22.9254   19.3075   19.3224 O   0  5  0  0  0  0  0  0  0  0  0  0
   24.0374   18.2730   20.8250 O   0  0  0  0  0  0  0  0  0  0  0  0
   21.9396   19.0454   21.4301 C   0  0  0  0  0  0  0  0  0  0  0  0
   22.1099   18.6265   22.4192 H   0  0  0  0  0  0  0  0  0  0  0  0
   20.7795   19.6816   21.1499 C   0  0  0  0  0  0  0  0  0  0  0  0
   20.5975   20.1031   20.1615 H   0  0  0  0  0  0  0  0  0  0  0  0
   19.6602   19.8590   22.1523 C   0  0  0  0  0  0  0  0  0  0  0  0
   19.0573   20.7355   21.8791 H   0  0  0  0  0  0  0  0  0  0  0  0
   20.0767   20.0643   23.1479 H   0  0  0  0  0  0  0  0  0  0  0  0
   18.7572   18.6101   22.2133 C   0  0  0  0  0  0  0  0  0  0  0  0
   18.3400   18.4081   21.2169 H   0  0  0  0  0  0  0  0  0  0  0  0
   19.3582   17.7329   22.4906 H   0  0  0  0  0  0  0  0  0  0  0  0
   17.6082   18.7866   23.2263 C   0  0  0  0  0  0  0  0  0  0  0  0
   16.9721   19.6392   22.9544 H   0  0  0  0  0  0  0  0  0  0  0  0
   16.9771   17.8888   23.2556 H   0  0  0  0  0  0  0  0  0  0  0  0
   17.9991   18.9591   24.2376 H   0  0  0  0  0  0  0  0  0  0  0  0
  1  2  1  0  0  0  0
  1  3  2  0  0  0  0
  1  4  1  0  0  0  0
  4  5  1  0  0  0  0
  4  6  2  0  0  0  0
  6  7  1  0  0  0  0
  6  8  1  0  0  0  0
  8  9  1  0  0  0  0
  8 10  1  0  0  0  0
  8 11  1  0  0  0  0
 11 12  1  0  0  0  0
 11 13  1  0  0  0  0
 11 14  1  0  0  0  0
 14 15  1  0  0  0  0
 14 16  1  0  0  0  0
 14 17  1  0  0  0  0
M  END
> <VConfSearch Rank>
174

> <Conf_Id>
1

> <Delta U+W>
0.030

> <U+W>
-53.378

> <U>
9.048

> <W>
-62.426

> <W(PB)>
-64.506

> <W(SA)>
2.080

> <Valence>
2.652

> <Coulomb>
5.578

> <VdW>
0.818

> <VdW6>
-4.535

> <VdW12>
5.352

> <Bond>
0.063

> <Angle>
2.579

> <Pdih>
0.010

> <Idih>
0.000

> <Tether>
0.000

$$$$
VeraChem MOL file


 17 16  0  0  0  0  0  0  0  0999 V2000     
   18.7581   16.4424   21.0924 C   0  0  0  0  0  0  0  0  0  0  0  0
   19.7609   15.8047   20.8312 O   0  5  0  0  0  0  0  0  0  0  0  0
   17.6633   15.9288   21.2166 O   0  0  0  0  0  0  0  0  0  0  0  0
   18.8494   17.9170   21.2688 C   0  0  0  0  0  0  0  0  0  0  0  0
   17.9166   18.4262   21.4998 H   0  0  0  0  0  0  0  0  0  0  0  0
   20.0003   18.6191   21.1608 C   0  0  0  0  0  0  0  0  0  0  0  0
   20.9411   18.1186   20.9331 H   0  0  0  0  0  0  0  0  0  0  0  0
   20.0862   20.1196   21.3456 C   0  0  0  0  0  0  0  0  0  0  0  0
   19.2194   20.5993   20.8712 H   0  0  0  0  0  0  0  0  0  0  0  0
   20.9731   20.5089   20.8276 H   0  0  0  0  0  0  0  0  0  0  0  0
   20.1378   20.5263   22.8347 C   0  0  0  0  0  0  0  0  0  0  0  0
   20.0926   21.6215   22.9096 H   0  0  0  0  0  0  0  0  0  0  0  0
   19.2510   20.1393   23.3553 H   0  0  0  0  0  0  0  0  0  0  0  0
   21.4155   20.0247   23.5408 C   0  0  0  0  0  0  0  0  0  0  0  0
   22.3156   20.4100   23.0443 H   0  0  0  0  0  0  0  0  0  0  0  0
   21.4354   20.3594   24.5861 H   0  0  0  0  0  0  0  0  0  0  0  0
   21.4651   18.9280   23.5379 H   0  0  0  0  0  0  0  0  0  0  0  0
  1  2  1  0  0  0  0
  1  3  2  0  0  0  0
  1  4  1  0  0  0  0
  4  5  1  0  0  0  0
  4  6  2  0  0  0  0
  6  7  1  0  0  0  0
  6  8  1  0  0  0  0
  8  9  1  0  0  0  0
  8 10  1  0  0  0  0
  8 11  1  0  0  0  0
 11 12  1  0  0  0  0
 11 13  1  0  0  0  0
 11 14  1  0  0  0  0
 14 15  1  0  0  0  0
 14 16  1  0  0  0  0
 14 17  1  0  0  0  0
M  END
> <VConfSearch Rank>
175

> <Conf_Id>
3

> <Delta U+W>
0.531

> <U+W>
-52.878

> <U>
10.067

> <W>
-62.945

> <W(PB)>
-64.982

> <W(SA)>
2.037

> <Valence>
2.779

> <Coulomb>
6.474

> <VdW>
0.815

> <VdW6>
-5.088

> <VdW12>
5.902

> <Bond>
0.078

> <Angle>
2.651

> <Pdih>
0.050

> <Idih>
0.000

> <Tether>
0.000

$$$$
VeraChem MOL file


 17 16  0  0  0  0  0  0  0  0999 V2000     
   20.8126   21.2183   24.0592 C   0  0  0  0  0  0  0  0  0  0  0  0
   20.6798   21.2441   25.2673 O   0  5  0  0  0  0  0  0  0  0  0  0
   20.9946   22.2203   23.3933 O   0  0  0  0  0  0  0  0  0  0  0  0
   20.7490   19.8914   23.3888 C   0  0  0  0  0  0  0  0  0  0  0  0
   20.5842   19.0378   24.0422 H   0  0  0  0  0  0  0  0  0  0  0  0
   20.8778   19.7146   22.0540 C   0  0  0  0  0  0  0  0  0  0  0  0
   21.0394   20.5647   21.3917 H   0  0  0  0  0  0  0  0  0  0  0  0
   20.8099   18.3627   21.3742 C   0  0  0  0  0  0  0  0  0  0  0  0
   20.9534   17.5551   22.1049 H   0  0  0  0  0  0  0  0  0  0  0  0
   21.6396   18.2788   20.6597 H   0  0  0  0  0  0  0  0  0  0  0  0
   19.4778   18.1511   20.6219 C   0  0  0  0  0  0  0  0  0  0  0  0
   19.3322   18.9601   19.8926 H   0  0  0  0  0  0  0  0  0  0  0  0
   19.5354   17.2167   20.0468 H   0  0  0  0  0  0  0  0  0  0  0  0
   18.2633   18.0826   21.5723 C   0  0  0  0  0  0  0  0  0  0  0  0
   18.1346   19.0256   22.1192 H   0  0  0  0  0  0  0  0  0  0  0  0
   17.3414   17.8928   21.0076 H   0  0  0  0  0  0  0  0  0  0  0  0
   18.3841   17.2749   22.3060 H   0  0  0  0  0  0  0  0  0  0  0  0
  1  2  1  0  0  0  0
  1  3  2  0  0  0  0
  1  4  1  0  0  0  0
  4  5  1  0  0  0  0
  4  6  2  0  0  0  0
  6  7  1  0  0  0  0
  6  8  1  0  0  0  0
  8  9  1  0  0  0  0
  8 10  1  0  0  0  0
  8 11  1  0  0  0  0
 11 12  1  0  0  0  0
 11 13  1  0  0  0  0
 11 14  1  0  0  0  0
 14 15  1  0  0  0  0
 14 16  1  0  0  0  0
 14 17  1  0  0  0  0
M  END
> <VConfSearch Rank>
176

> <Conf_Id>
45

> <Delta U+W>
0.562

> <U+W>
-52.846

> <U>
10.243

> <W>
-63.089

> <W(PB)>
-65.116

> <W(SA)>
2.026

> <Valence>
2.822

> <Coulomb>
6.637

> <VdW>
0.785

> <VdW6>
-5.216

> <VdW12>
6.001

> <Bond>
0.080

> <Angle>
2.678

> <Pdih>
0.064

> <Idih>
0.000

> <Tether>
0.000

$$$$
VeraChem MOL file


 17 16  0  0  0  0  0  0  0  0999 V2000     
   23.2282   18.8725   20.9901 C   0  0  0  0  0  0  0  0  0  0  0  0
   24.1583   19.6138   21.2413 O   0  5  0  0  0  0  0  0  0  0  0  0
   23.2876   18.0018   20.1424 O   0  0  0  0  0  0  0  0  0  0  0  0
   21.9730   19.0566   21.7678 C   0  0  0  0  0  0  0  0  0  0  0  0
   21.9865   19.8519   22.5096 H   0  0  0  0  0  0  0  0  0  0  0  0
   20.8614   18.3061   21.5935 C   0  0  0  0  0  0  0  0  0  0  0  0
   20.8361   17.5083   20.8515 H   0  0  0  0  0  0  0  0  0  0  0  0
   19.5881   18.5013   22.3872 C   0  0  0  0  0  0  0  0  0  0  0  0
   19.8296   18.7435   23.4311 H   0  0  0  0  0  0  0  0  0  0  0  0
   19.0199   17.5616   22.4078 H   0  0  0  0  0  0  0  0  0  0  0  0
   18.7147   19.6193   21.7821 C   0  0  0  0  0  0  0  0  0  0  0  0
   19.2803   20.5613   21.7646 H   0  0  0  0  0  0  0  0  0  0  0  0
   18.4728   19.3739   20.7387 H   0  0  0  0  0  0  0  0  0  0  0  0
   17.4103   19.8182   22.5799 C   0  0  0  0  0  0  0  0  0  0  0  0
   16.8096   18.8991   22.5864 H   0  0  0  0  0  0  0  0  0  0  0  0
   17.6246   20.0952   23.6205 H   0  0  0  0  0  0  0  0  0  0  0  0
   16.8027   20.6169   22.1350 H   0  0  0  0  0  0  0  0  0  0  0  0
  1  2  1  0  0  0  0
  1  3  2  0  0  0  0
  1  4  1  0  0  0  0
  4  5  1  0  0  0  0
  4  6  2  0  0  0  0
  6  7  1  0  0  0  0
  6  8  1  0  0  0  0
  8  9  1  0  0  0  0
  8 10  1  0  0  0  0
  8 11  1  0  0  0  0
 11 12  1  0  0  0  0
 11 13  1  0  0  0  0
 11 14  1  0  0  0  0
 14 15  1  0  0  0  0
 14 16  1  0  0  0  0
 14 17  1  0  0  0  0
M  END
> <VConfSearch Rank>
177

> <Conf_Id>
36

> <Delta U+W>
0.000

> <U+W>
-53.409

> <U>
9.048

> <W>
-62.457

> <W(PB)>
-64.540

> <W(SA)>
2.084

> <Valence>
2.652

> <Coulomb>
5.578

> <VdW>
0.818

> <VdW6>
-4.534

> <VdW12>
5.352

> <Bond>
0.063

> <Angle>
2.579

> <Pdih>
0.010

> <Idih>
0.000

> <Tether>
0.000

$$$$
VeraChem MOL file


 17 16  0  0  0  0  0  0  0  0999 V2000     
   23.0299   18.2688   23.1796 C   0  0  0  0  0  0  0  0  0  0  0  0
   23.5040   19.2852   23.6515 O   0  5  0  0  0  0  0  0  0  0  0  0
   23.6715   17.2465   23.0350 O   0  0  0  0  0  0  0  0  0  0  0  0
   21.6040   18.2515   22.7547 C   0  0  0  0  0  0  0  0  0  0  0  0
   21.2432   17.3123   22.3415 H   0  0  0  0  0  0  0  0  0  0  0  0
   20.7743   19.3147   22.8561 C   0  0  0  0  0  0  0  0  0  0  0  0
   21.1259   20.2611   23.2666 H   0  0  0  0  0  0  0  0  0  0  0  0
   19.3257   19.2892   22.4199 C   0  0  0  0  0  0  0  0  0  0  0  0
   18.7608   20.0497   22.9758 H   0  0  0  0  0  0  0  0  0  0  0  0
   18.8749   18.3194   22.6710 H   0  0  0  0  0  0  0  0  0  0  0  0
   19.1901   19.5499   20.9058 C   0  0  0  0  0  0  0  0  0  0  0  0
   19.6398   20.5213   20.6574 H   0  0  0  0  0  0  0  0  0  0  0  0
   19.7515   18.7874   20.3480 H   0  0  0  0  0  0  0  0  0  0  0  0
   17.7157   19.5347   20.4547 C   0  0  0  0  0  0  0  0  0  0  0  0
   17.1377   20.3099   20.9747 H   0  0  0  0  0  0  0  0  0  0  0  0
   17.6394   19.7218   19.3757 H   0  0  0  0  0  0  0  0  0  0  0  0
   17.2510   18.5622   20.6637 H   0  0  0  0  0  0  0  0  0  0  0  0
  1  2  1  0  0  0  0
  1  3  2  0  0  0  0
  1  4  1  0  0  0  0
  4  5  1  0  0  0  0
  4  6  2  0  0  0  0
  6  7  1  0  0  0  0
  6  8  1  0  0  0  0
  8  9  1  0  0  0  0
  8 10  1  0  0  0  0
  8 11  1  0  0  0  0
 11 12  1  0  0  0  0
 11 13  1  0  0  0  0
 11 14  1  0  0  0  0
 14 15  1  0  0  0  0
 14 16  1  0  0  0  0
 14 17  1  0  0  0  0
M  END
> <VConfSearch Rank>
178

> <Conf_Id>
1

> <Delta U+W>
0.030

> <U+W>
-53.378

> <U>
9.048

> <W>
-62.426

> <W(PB)>
-64.506

> <W(SA)>
2.080

> <Valence>
2.652

> <Coulomb>
5.578

> <VdW>
0.818

> <VdW6>
-4.535

> <VdW12>
5.352

> <Bond>
0.063

> <Angle>
2.579

> <Pdih>
0.010

> <Idih>
0.000

> <Tether>
0.000

$$$$
VeraChem MOL file


 17 16  0  0  0  0  0  0  0  0999 V2000     
   18.6345   16.4329   22.7860 C   0  0  0  0  0  0  0  0  0  0  0  0
   19.5133   15.9021   23.4390 O   0  5  0  0  0  0  0  0  0  0  0  0
   17.4802   16.0518   22.8001 O   0  0  0  0  0  0  0  0  0  0  0  0
   18.9627   17.5990   21.9219 C   0  0  0  0  0  0  0  0  0  0  0  0
   18.1320   18.0255   21.3644 H   0  0  0  0  0  0  0  0  0  0  0  0
   20.2019   18.1291   21.8102 C   0  0  0  0  0  0  0  0  0  0  0  0
   21.0407   17.7117   22.3668 H   0  0  0  0  0  0  0  0  0  0  0  0
   20.5277   19.3186   20.9316 C   0  0  0  0  0  0  0  0  0  0  0  0
   19.9869   19.2323   19.9794 H   0  0  0  0  0  0  0  0  0  0  0  0
   21.5963   19.3135   20.6783 H   0  0  0  0  0  0  0  0  0  0  0  0
   20.1622   20.6615   21.6014 C   0  0  0  0  0  0  0  0  0  0  0  0
   20.3206   21.4766   20.8819 H   0  0  0  0  0  0  0  0  0  0  0  0
   19.0930   20.6701   21.8550 H   0  0  0  0  0  0  0  0  0  0  0  0
   20.9992   20.9375   22.8687 C   0  0  0  0  0  0  0  0  0  0  0  0
   22.0721   20.9461   22.6364 H   0  0  0  0  0  0  0  0  0  0  0  0
   20.7378   21.9129   23.2989 H   0  0  0  0  0  0  0  0  0  0  0  0
   20.8205   20.1727   23.6357 H   0  0  0  0  0  0  0  0  0  0  0  0
  1  2  1  0  0  0  0
  1  3  2  0  0  0  0
  1  4  1  0  0  0  0
  4  5  1  0  0  0  0
  4  6  2  0  0  0  0
  6  7  1  0  0  0  0
  6  8  1  0  0  0  0
  8  9  1  0  0  0  0
  8 10  1  0  0  0  0
  8 11  1  0  0  0  0
 11 12  1  0  0  0  0
 11 13  1  0  0  0  0
 11 14  1  0  0  0  0
 14 15  1  0  0  0  0
 14 16  1  0  0  0  0
 14 17  1  0  0  0  0
M  END
> <VConfSearch Rank>
179

> <Conf_Id>
3

> <Delta U+W>
0.531

> <U+W>
-52.878

> <U>
10.067

> <W>
-62.945

> <W(PB)>
-64.982

> <W(SA)>
2.037

> <Valence>
2.779

> <Coulomb>
6.474

> <VdW>
0.815

> <VdW6>
-5.088

> <VdW12>
5.902

> <Bond>
0.078

> <Angle>
2.651

> <Pdih>
0.050

> <Idih>
0.000

> <Tether>
0.000

$$$$
VeraChem MOL file


 17 16  0  0  0  0  0  0  0  0999 V2000     
   18.3909   19.5692   24.6028 C   0  0  0  0  0  0  0  0  0  0  0  0
   18.6725   20.2319   25.5823 O   0  5  0  0  0  0  0  0  0  0  0  0
   17.5577   18.6827   24.6226 O   0  0  0  0  0  0  0  0  0  0  0  0
   19.1075   19.8768   23.3356 C   0  0  0  0  0  0  0  0  0  0  0  0
   19.8386   20.6802   23.3876 H   0  0  0  0  0  0  0  0  0  0  0  0
   18.8969   19.2197   22.1722 C   0  0  0  0  0  0  0  0  0  0  0  0
   18.1689   18.4111   22.1122 H   0  0  0  0  0  0  0  0  0  0  0  0
   19.6300   19.5333   20.8843 C   0  0  0  0  0  0  0  0  0  0  0  0
   20.1006   20.5244   20.9391 H   0  0  0  0  0  0  0  0  0  0  0  0
   18.9039   19.5851   20.0621 H   0  0  0  0  0  0  0  0  0  0  0  0
   20.6973   18.4702   20.5437 C   0  0  0  0  0  0  0  0  0  0  0  0
   20.2279   17.4781   20.4914 H   0  0  0  0  0  0  0  0  0  0  0  0
   21.1040   18.6780   19.5444 H   0  0  0  0  0  0  0  0  0  0  0  0
   21.8563   18.4443   21.5629 C   0  0  0  0  0  0  0  0  0  0  0  0
   21.4969   18.1758   22.5648 H   0  0  0  0  0  0  0  0  0  0  0  0
   22.6133   17.7061   21.2681 H   0  0  0  0  0  0  0  0  0  0  0  0
   22.3455   19.4251   21.6260 H   0  0  0  0  0  0  0  0  0  0  0  0
  1  2  1  0  0  0  0
  1  3  2  0  0  0  0
  1  4  1  0  0  0  0
  4  5  1  0  0  0  0
  4  6  2  0  0  0  0
  6  7  1  0  0  0  0
  6  8  1  0  0  0  0
  8  9  1  0  0  0  0
  8 10  1  0  0  0  0
  8 11  1  0  0  0  0
 11 12  1  0  0  0  0
 11 13  1  0  0  0  0
 11 14  1  0  0  0  0
 14 15  1  0  0  0  0
 14 16  1  0  0  0  0
 14 17  1  0  0  0  0
M  END
> <VConfSearch Rank>
180

> <Conf_Id>
45

> <Delta U+W>
0.562

> <U+W>
-52.846

> <U>
10.243

> <W>
-63.089

> <W(PB)>
-65.116

> <W(SA)>
2.026

> <Valence>
2.822

> <Coulomb>
6.637

> <VdW>
0.785

> <VdW6>
-5.216

> <VdW12>
6.001

> <Bond>
0.080

> <Angle>
2.678

> <Pdih>
0.064

> <Idih>
0.000

> <Tether>
0.000

$$$$
VeraChem MOL file


 17 16  0  0  0  0  0  0  0  0999 V2000     
   21.6813   22.0348   21.7768 C   0  0  0  0  0  0  0  0  0  0  0  0
   22.1996   22.5798   20.8218 O   0  5  0  0  0  0  0  0  0  0  0  0
   21.8937   22.3732   22.9261 O   0  0  0  0  0  0  0  0  0  0  0  0
   20.7491   20.9078   21.5029 C   0  0  0  0  0  0  0  0  0  0  0  0
   20.6035   20.6564   20.4548 H   0  0  0  0  0  0  0  0  0  0  0  0
   20.1045   20.2116   22.4666 C   0  0  0  0  0  0  0  0  0  0  0  0
   20.2449   20.4536   23.5200 H   0  0  0  0  0  0  0  0  0  0  0  0
   19.1596   19.0653   22.1796 C   0  0  0  0  0  0  0  0  0  0  0  0
   18.5630   19.2856   21.2839 H   0  0  0  0  0  0  0  0  0  0  0  0
   18.4486   18.9579   23.0099 H   0  0  0  0  0  0  0  0  0  0  0  0
   19.9260   17.7414   21.9819 C   0  0  0  0  0  0  0  0  0  0  0  0
   20.6348   17.8458   21.1488 H   0  0  0  0  0  0  0  0  0  0  0  0
   20.5203   17.5222   22.8799 H   0  0  0  0  0  0  0  0  0  0  0  0
   18.9692   16.5660   21.6982 C   0  0  0  0  0  0  0  0  0  0  0  0
   18.2691   16.4192   22.5312 H   0  0  0  0  0  0  0  0  0  0  0  0
   18.3845   16.7467   20.7866 H   0  0  0  0  0  0  0  0  0  0  0  0
   19.5321   15.6337   21.5605 H   0  0  0  0  0  0  0  0  0  0  0  0
  1  2  1  0  0  0  0
  1  3  2  0  0  0  0
  1  4  1  0  0  0  0
  4  5  1  0  0  0  0
  4  6  2  0  0  0  0
  6  7  1  0  0  0  0
  6  8  1  0  0  0  0
  8  9  1  0  0  0  0
  8 10  1  0  0  0  0
  8 11  1  0  0  0  0
 11 12  1  0  0  0  0
 11 13  1  0  0  0  0
 11 14  1  0  0  0  0
 14 15  1  0  0  0  0
 14 16  1  0  0  0  0
 14 17  1  0  0  0  0
M  END
> <VConfSearch Rank>
181

> <Conf_Id>
36

> <Delta U+W>
0.000

> <U+W>
-53.409

> <U>
9.048

> <W>
-62.457

> <W(PB)>
-64.540

> <W(SA)>
2.084

> <Valence>
2.652

> <Coulomb>
5.578

> <VdW>
0.818

> <VdW6>
-4.534

> <VdW12>
5.352

> <Bond>
0.063

> <Angle>
2.579

> <Pdih>
0.010

> <Idih>
0.000

> <Tether>
0.000

$$$$
VeraChem MOL file


 17 16  0  0  0  0  0  0  0  0999 V2000     
   20.5749   20.2865   18.8089 C   0  0  0  0  0  0  0  0  0  0  0  0
   19.6607   19.8926   18.1093 O   0  5  0  0  0  0  0  0  0  0  0  0
   21.5713   20.8160   18.3566 O   0  0  0  0  0  0  0  0  0  0  0  0
   20.4921   20.1256   20.2859 C   0  0  0  0  0  0  0  0  0  0  0  0
   21.3422   20.4989   20.8524 H   0  0  0  0  0  0  0  0  0  0  0  0
   19.4453   19.5549   20.9244 C   0  0  0  0  0  0  0  0  0  0  0  0
   18.5894   19.1755   20.3664 H   0  0  0  0  0  0  0  0  0  0  0  0
   19.3698   19.3934   22.4268 C   0  0  0  0  0  0  0  0  0  0  0  0
   18.3181   19.3336   22.7379 H   0  0  0  0  0  0  0  0  0  0  0  0
   19.7921   20.2787   22.9214 H   0  0  0  0  0  0  0  0  0  0  0  0
   20.1190   18.1289   22.8945 C   0  0  0  0  0  0  0  0  0  0  0  0
   19.6934   17.2445   22.4001 H   0  0  0  0  0  0  0  0  0  0  0  0
   21.1725   18.1890   22.5876 H   0  0  0  0  0  0  0  0  0  0  0  0
   20.0388   17.9521   24.4242 C   0  0  0  0  0  0  0  0  0  0  0  0
   18.9962   17.8575   24.7547 H   0  0  0  0  0  0  0  0  0  0  0  0
   20.5770   17.0481   24.7377 H   0  0  0  0  0  0  0  0  0  0  0  0
   20.4866   18.8100   24.9428 H   0  0  0  0  0  0  0  0  0  0  0  0
  1  2  1  0  0  0  0
  1  3  2  0  0  0  0
  1  4  1  0  0  0  0
  4  5  1  0  0  0  0
  4  6  2  0  0  0  0
  6  7  1  0  0  0  0
  6  8  1  0  0  0  0
  8  9  1  0  0  0  0
  8 10  1  0  0  0  0
  8 11  1  0  0  0  0
 11 12  1  0  0  0  0
 11 13  1  0  0  0  0
 11 14  1  0  0  0  0
 14 15  1  0  0  0  0
 14 16  1  0  0  0  0
 14 17  1  0  0  0  0
M  END
> <VConfSearch Rank>
182

> <Conf_Id>
1

> <Delta U+W>
0.030

> <U+W>
-53.378

> <U>
9.048

> <W>
-62.426

> <W(PB)>
-64.506

> <W(SA)>
2.080

> <Valence>
2.652

> <Coulomb>
5.578

> <VdW>
0.818

> <VdW6>
-4.535

> <VdW12>
5.352

> <Bond>
0.063

> <Angle>
2.579

> <Pdih>
0.010

> <Idih>
0.000

> <Tether>
0.000

$$$$
VeraChem MOL file


 17 16  0  0  0  0  0  0  0  0999 V2000     
   19.0061   21.9998   22.0548 C   0  0  0  0  0  0  0  0  0  0  0  0
   19.1503   22.2798   23.2300 O   0  5  0  0  0  0  0  0  0  0  0  0
   18.8309   22.8392   21.1931 O   0  0  0  0  0  0  0  0  0  0  0  0
   19.0383   20.5743   21.6292 C   0  0  0  0  0  0  0  0  0  0  0  0
   18.9022   20.3933   20.5655 H   0  0  0  0  0  0  0  0  0  0  0  0
   19.2258   19.5384   22.4782 C   0  0  0  0  0  0  0  0  0  0  0  0
   19.3666   19.7086   23.5453 H   0  0  0  0  0  0  0  0  0  0  0  0
   19.2612   18.0902   22.0371 C   0  0  0  0  0  0  0  0  0  0  0  0
   18.4854   17.9170   21.2791 H   0  0  0  0  0  0  0  0  0  0  0  0
   19.0133   17.4363   22.8840 H   0  0  0  0  0  0  0  0  0  0  0  0
   20.6346   17.6859   21.4573 C   0  0  0  0  0  0  0  0  0  0  0  0
   20.5696   16.6639   21.0594 H   0  0  0  0  0  0  0  0  0  0  0  0
   20.8848   18.3377   20.6089 H   0  0  0  0  0  0  0  0  0  0  0  0
   21.7620   17.7467   22.5099 C   0  0  0  0  0  0  0  0  0  0  0  0
   21.5389   17.0923   23.3626 H   0  0  0  0  0  0  0  0  0  0  0  0
   22.7153   17.4217   22.0735 H   0  0  0  0  0  0  0  0  0  0  0  0
   21.8962   18.7687   22.8879 H   0  0  0  0  0  0  0  0  0  0  0  0
  1  2  1  0  0  0  0
  1  3  2  0  0  0  0
  1  4  1  0  0  0  0
  4  5  1  0  0  0  0
  4  6  2  0  0  0  0
  6  7  1  0  0  0  0
  6  8  1  0  0  0  0
  8  9  1  0  0  0  0
  8 10  1  0  0  0  0
  8 11  1  0  0  0  0
 11 12  1  0  0  0  0
 11 13  1  0  0  0  0
 11 14  1  0  0  0  0
 14 15  1  0  0  0  0
 14 16  1  0  0  0  0
 14 17  1  0  0  0  0
M  END
> <VConfSearch Rank>
183

> <Conf_Id>
3

> <Delta U+W>
0.531

> <U+W>
-52.878

> <U>
10.067

> <W>
-62.945

> <W(PB)>
-64.982

> <W(SA)>
2.037

> <Valence>
2.779

> <Coulomb>
6.474

> <VdW>
0.815

> <VdW6>
-5.088

> <VdW12>
5.902

> <Bond>
0.078

> <Angle>
2.651

> <Pdih>
0.050

> <Idih>
0.000

> <Tether>
0.000

$$$$
VeraChem MOL file


 17 16  0  0  0  0  0  0  0  0999 V2000     
   20.0407   17.0028   19.9045 C   0  0  0  0  0  0  0  0  0  0  0  0
   19.1567   16.2658   19.5132 O   0  5  0  0  0  0  0  0  0  0  0  0
   21.2214   16.7731   19.7212 O   0  0  0  0  0  0  0  0  0  0  0  0
   19.6359   18.2349   20.6339 C   0  0  0  0  0  0  0  0  0  0  0  0
   18.5657   18.3792   20.7629 H   0  0  0  0  0  0  0  0  0  0  0  0
   20.5111   19.1411   21.1262 C   0  0  0  0  0  0  0  0  0  0  0  0
   21.5851   19.0025   21.0046 H   0  0  0  0  0  0  0  0  0  0  0  0
   20.0959   20.3931   21.8708 C   0  0  0  0  0  0  0  0  0  0  0  0
   19.0360   20.6173   21.6890 H   0  0  0  0  0  0  0  0  0  0  0  0
   20.6608   21.2484   21.4767 H   0  0  0  0  0  0  0  0  0  0  0  0
   20.3497   20.2828   23.3902 C   0  0  0  0  0  0  0  0  0  0  0  0
   21.4092   20.0559   23.5729 H   0  0  0  0  0  0  0  0  0  0  0  0
   20.1522   21.2569   23.8583 H   0  0  0  0  0  0  0  0  0  0  0  0
   19.4647   19.2124   24.0640 C   0  0  0  0  0  0  0  0  0  0  0  0
   19.6804   18.2123   23.6661 H   0  0  0  0  0  0  0  0  0  0  0  0
   19.6435   19.1893   25.1467 H   0  0  0  0  0  0  0  0  0  0  0  0
   18.3999   19.4238   23.9005 H   0  0  0  0  0  0  0  0  0  0  0  0
  1  2  1  0  0  0  0
  1  3  2  0  0  0  0
  1  4  1  0  0  0  0
  4  5  1  0  0  0  0
  4  6  2  0  0  0  0
  6  7  1  0  0  0  0
  6  8  1  0  0  0  0
  8  9  1  0  0  0  0
  8 10  1  0  0  0  0
  8 11  1  0  0  0  0
 11 12  1  0  0  0  0
 11 13  1  0  0  0  0
 11 14  1  0  0  0  0
 14 15  1  0  0  0  0
 14 16  1  0  0  0  0
 14 17  1  0  0  0  0
M  END
> <VConfSearch Rank>
184

> <Conf_Id>
45

> <Delta U+W>
0.562

> <U+W>
-52.846

> <U>
10.243

> <W>
-63.089

> <W(PB)>
-65.116

> <W(SA)>
2.026

> <Valence>
2.822

> <Coulomb>
6.637

> <VdW>
0.785

> <VdW6>
-5.216

> <VdW12>
6.001

> <Bond>
0.080

> <Angle>
2.678

> <Pdih>
0.064

> <Idih>
0.000

> <Tether>
0.000

$$$$
VeraChem MOL file


 17 16  0  0  0  0  0  0  0  0999 V2000     
   23.1663   20.1263   21.3733 C   0  0  0  0  0  0  0  0  0  0  0  0
   23.7835   20.1982   20.3285 O   0  5  0  0  0  0  0  0  0  0  0  0
   23.7011   20.2062   22.4633 O   0  0  0  0  0  0  0  0  0  0  0  0
   21.6932   19.9334   21.2898 C   0  0  0  0  0  0  0  0  0  0  0  0
   21.2790   19.8700   20.2861 H   0  0  0  0  0  0  0  0  0  0  0  0
   20.8836   19.8354   22.3686 C   0  0  0  0  0  0  0  0  0  0  0  0
   21.2883   19.8951   23.3787 H   0  0  0  0  0  0  0  0  0  0  0  0
   19.3865   19.6370   22.2750 C   0  0  0  0  0  0  0  0  0  0  0  0
   18.9817   20.2227   21.4384 H   0  0  0  0  0  0  0  0  0  0  0  0
   18.9070   20.0204   23.1857 H   0  0  0  0  0  0  0  0  0  0  0  0
   19.0274   18.1485   22.0901 C   0  0  0  0  0  0  0  0  0  0  0  0
   19.5030   17.7644   21.1770 H   0  0  0  0  0  0  0  0  0  0  0  0
   19.4316   17.5650   22.9291 H   0  0  0  0  0  0  0  0  0  0  0  0
   17.5025   17.9367   22.0032 C   0  0  0  0  0  0  0  0  0  0  0  0
   17.0048   18.2836   22.9183 H   0  0  0  0  0  0  0  0  0  0  0  0
   17.0776   18.4855   21.1526 H   0  0  0  0  0  0  0  0  0  0  0  0
   17.2667   16.8726   21.8719 H   0  0  0  0  0  0  0  0  0  0  0  0
  1  2  1  0  0  0  0
  1  3  2  0  0  0  0
  1  4  1  0  0  0  0
  4  5  1  0  0  0  0
  4  6  2  0  0  0  0
  6  7  1  0  0  0  0
  6  8  1  0  0  0  0
  8  9  1  0  0  0  0
  8 10  1  0  0  0  0
  8 11  1  0  0  0  0
 11 12  1  0  0  0  0
 11 13  1  0  0  0  0
 11 14  1  0  0  0  0
 14 15  1  0  0  0  0
 14 16  1  0  0  0  0
 14 17  1  0  0  0  0
M  END
> <VConfSearch Rank>
185

> <Conf_Id>
36

> <Delta U+W>
0.000

> <U+W>
-53.409

> <U>
9.048

> <W>
-62.457

> <W(PB)>
-64.540

> <W(SA)>
2.084

> <Valence>
2.652

> <Coulomb>
5.578

> <VdW>
0.818

> <VdW6>
-4.534

> <VdW12>
5.352

> <Bond>
0.063

> <Angle>
2.579

> <Pdih>
0.010

> <Idih>
0.000

> <Tether>
0.000

$$$$
VeraChem MOL file


 17 16  0  0  0  0  0  0  0  0999 V2000     
   22.6210   17.0459   21.2893 C   0  0  0  0  0  0  0  0  0  0  0  0
   22.5291   16.7028   20.1256 O   0  5  0  0  0  0  0  0  0  0  0  0
   23.4012   16.5343   22.0686 O   0  0  0  0  0  0  0  0  0  0  0  0
   21.7519   18.1385   21.8042 C   0  0  0  0  0  0  0  0  0  0  0  0
   21.8845   18.3963   22.8525 H   0  0  0  0  0  0  0  0  0  0  0  0
   20.8400   18.7945   21.0512 C   0  0  0  0  0  0  0  0  0  0  0  0
   20.6974   18.5428   20.0004 H   0  0  0  0  0  0  0  0  0  0  0  0
   19.9587   19.9034   21.5831 C   0  0  0  0  0  0  0  0  0  0  0  0
   19.6491   20.5561   20.7558 H   0  0  0  0  0  0  0  0  0  0  0  0
   20.5272   20.5326   22.2816 H   0  0  0  0  0  0  0  0  0  0  0  0
   18.7097   19.3384   22.2900 C   0  0  0  0  0  0  0  0  0  0  0  0
   18.1417   18.7112   21.5889 H   0  0  0  0  0  0  0  0  0  0  0  0
   19.0178   18.6883   23.1208 H   0  0  0  0  0  0  0  0  0  0  0  0
   17.8014   20.4627   22.8271 C   0  0  0  0  0  0  0  0  0  0  0  0
   17.4529   21.1098   22.0114 H   0  0  0  0  0  0  0  0  0  0  0  0
   16.9189   20.0417   23.3262 H   0  0  0  0  0  0  0  0  0  0  0  0
   18.3369   21.0864   23.5548 H   0  0  0  0  0  0  0  0  0  0  0  0
  1  2  1  0  0  0  0
  1  3  2  0  0  0  0
  1  4  1  0  0  0  0
  4  5  1  0  0  0  0
  4  6  2  0  0  0  0
  6  7  1  0  0  0  0
  6  8  1  0  0  0  0
  8  9  1  0  0  0  0
  8 10  1  0  0  0  0
  8 11  1  0  0  0  0
 11 12  1  0  0  0  0
 11 13  1  0  0  0  0
 11 14  1  0  0  0  0
 14 15  1  0  0  0  0
 14 16  1  0  0  0  0
 14 17  1  0  0  0  0
M  END
> <VConfSearch Rank>
186

> <Conf_Id>
1

> <Delta U+W>
0.030

> <U+W>
-53.378

> <U>
9.048

> <W>
-62.426

> <W(PB)>
-64.506

> <W(SA)>
2.080

> <Valence>
2.652

> <Coulomb>
5.578

> <VdW>
0.818

> <VdW6>
-4.535

> <VdW12>
5.352

> <Bond>
0.063

> <Angle>
2.579

> <Pdih>
0.010

> <Idih>
0.000

> <Tether>
0.000

$$$$
VeraChem MOL file


 17 16  0  0  0  0  0  0  0  0999 V2000     
   17.4904   17.3321   21.8610 C   0  0  0  0  0  0  0  0  0  0  0  0
   17.8422   16.3706   22.5185 O   0  5  0  0  0  0  0  0  0  0  0  0
   16.3291   17.5434   21.5704 O   0  0  0  0  0  0  0  0  0  0  0  0
   18.5079   18.3040   21.3771 C   0  0  0  0  0  0  0  0  0  0  0  0
   18.1268   19.1396   20.7946 H   0  0  0  0  0  0  0  0  0  0  0  0
   19.8327   18.1949   21.6261 C   0  0  0  0  0  0  0  0  0  0  0  0
   20.2249   17.3635   22.2114 H   0  0  0  0  0  0  0  0  0  0  0  0
   20.8620   19.1903   21.1334 C   0  0  0  0  0  0  0  0  0  0  0  0
   20.6200   19.4921   20.1054 H   0  0  0  0  0  0  0  0  0  0  0  0
   21.8502   18.7131   21.0878 H   0  0  0  0  0  0  0  0  0  0  0  0
   20.9369   20.4485   22.0260 C   0  0  0  0  0  0  0  0  0  0  0  0
   21.6185   21.1762   21.5645 H   0  0  0  0  0  0  0  0  0  0  0  0
   19.9498   20.9289   22.0726 H   0  0  0  0  0  0  0  0  0  0  0  0
   21.4289   20.1319   23.4544 C   0  0  0  0  0  0  0  0  0  0  0  0
   22.4208   19.6620   23.4330 H   0  0  0  0  0  0  0  0  0  0  0  0
   21.5022   21.0511   24.0499 H   0  0  0  0  0  0  0  0  0  0  0  0
   20.7383   19.4516   23.9696 H   0  0  0  0  0  0  0  0  0  0  0  0
  1  2  1  0  0  0  0
  1  3  2  0  0  0  0
  1  4  1  0  0  0  0
  4  5  1  0  0  0  0
  4  6  2  0  0  0  0
  6  7  1  0  0  0  0
  6  8  1  0  0  0  0
  8  9  1  0  0  0  0
  8 10  1  0  0  0  0
  8 11  1  0  0  0  0
 11 12  1  0  0  0  0
 11 13  1  0  0  0  0
 11 14  1  0  0  0  0
 14 15  1  0  0  0  0
 14 16  1  0  0  0  0
 14 17  1  0  0  0  0
M  END
> <VConfSearch Rank>
187

> <Conf_Id>
3

> <Delta U+W>
0.531

> <U+W>
-52.878

> <U>
10.067

> <W>
-62.945

> <W(PB)>
-64.982

> <W(SA)>
2.037

> <Valence>
2.779

> <Coulomb>
6.474

> <VdW>
0.815

> <VdW6>
-5.088

> <VdW12>
5.902

> <Bond>
0.078

> <Angle>
2.651

> <Pdih>
0.050

> <Idih>
0.000

> <Tether>
0.000

$$$$
VeraChem MOL file


 17 16  0  0  0  0  0  0  0  0999 V2000     
   17.4188   17.6816   22.8273 C   0  0  0  0  0  0  0  0  0  0  0  0
   16.4250   18.1159   23.3763 O   0  5  0  0  0  0  0  0  0  0  0  0
   17.6946   16.4968   22.8017 O   0  0  0  0  0  0  0  0  0  0  0  0
   18.3200   18.6611   22.1620 C   0  0  0  0  0  0  0  0  0  0  0  0
   18.0147   19.7031   22.2225 H   0  0  0  0  0  0  0  0  0  0  0  0
   19.4587   18.3198   21.5166 C   0  0  0  0  0  0  0  0  0  0  0  0
   19.7739   17.2785   21.4544 H   0  0  0  0  0  0  0  0  0  0  0  0
   20.3755   19.3195   20.8426 C   0  0  0  0  0  0  0  0  0  0  0  0
   19.8552   20.2735   20.6814 H   0  0  0  0  0  0  0  0  0  0  0  0
   20.6426   18.9452   19.8453 H   0  0  0  0  0  0  0  0  0  0  0  0
   21.6699   19.5641   21.6488 C   0  0  0  0  0  0  0  0  0  0  0  0
   22.1896   18.6100   21.8128 H   0  0  0  0  0  0  0  0  0  0  0  0
   22.3481   20.1930   21.0558 H   0  0  0  0  0  0  0  0  0  0  0  0
   21.4038   20.2515   23.0051 C   0  0  0  0  0  0  0  0  0  0  0  0
   20.7800   19.6218   23.6527 H   0  0  0  0  0  0  0  0  0  0  0  0
   22.3473   20.4445   23.5318 H   0  0  0  0  0  0  0  0  0  0  0  0
   20.8911   21.2119   22.8645 H   0  0  0  0  0  0  0  0  0  0  0  0
  1  2  1  0  0  0  0
  1  3  2  0  0  0  0
  1  4  1  0  0  0  0
  4  5  1  0  0  0  0
  4  6  2  0  0  0  0
  6  7  1  0  0  0  0
  6  8  1  0  0  0  0
  8  9  1  0  0  0  0
  8 10  1  0  0  0  0
  8 11  1  0  0  0  0
 11 12  1  0  0  0  0
 11 13  1  0  0  0  0
 11 14  1  0  0  0  0
 14 15  1  0  0  0  0
 14 16  1  0  0  0  0
 14 17  1  0  0  0  0
M  END
> <VConfSearch Rank>
188

> <Conf_Id>
45

> <Delta U+W>
0.562

> <U+W>
-52.846

> <U>
10.243

> <W>
-63.089

> <W(PB)>
-65.116

> <W(SA)>
2.026

> <Valence>
2.822

> <Coulomb>
6.637

> <VdW>
0.785

> <VdW6>
-5.216

> <VdW12>
6.001

> <Bond>
0.080

> <Angle>
2.678

> <Pdih>
0.064

> <Idih>
0.000

> <Tether>
0.000

$$$$
VeraChem MOL file


 17 16  0  0  0  0  0  0  0  0999 V2000     
   17.6572   16.7182   21.5093 C   0  0  0  0  0  0  0  0  0  0  0  0
   16.4690   16.7503   21.7642 O   0  5  0  0  0  0  0  0  0  0  0  0
   18.2515   15.6863   21.2594 O   0  0  0  0  0  0  0  0  0  0  0  0
   18.3952   18.0102   21.5077 C   0  0  0  0  0  0  0  0  0  0  0  0
   17.8052   18.8941   21.7389 H   0  0  0  0  0  0  0  0  0  0  0  0
   19.7168   18.1231   21.2433 C   0  0  0  0  0  0  0  0  0  0  0  0
   20.3179   17.2437   21.0127 H   0  0  0  0  0  0  0  0  0  0  0  0
   20.4602   19.4408   21.2458 C   0  0  0  0  0  0  0  0  0  0  0  0
   19.8284   20.2294   20.8149 H   0  0  0  0  0  0  0  0  0  0  0  0
   21.3468   19.3641   20.6020 H   0  0  0  0  0  0  0  0  0  0  0  0
   20.8910   19.8402   22.6720 C   0  0  0  0  0  0  0  0  0  0  0  0
   20.0047   19.9214   23.3164 H   0  0  0  0  0  0  0  0  0  0  0  0
   21.5246   19.0509   23.1000 H   0  0  0  0  0  0  0  0  0  0  0  0
   21.6579   21.1779   22.6820 C   0  0  0  0  0  0  0  0  0  0  0  0
   22.5671   21.1142   22.0698 H   0  0  0  0  0  0  0  0  0  0  0  0
   21.0347   21.9909   22.2870 H   0  0  0  0  0  0  0  0  0  0  0  0
   21.9557   21.4453   23.7042 H   0  0  0  0  0  0  0  0  0  0  0  0
  1  2  1  0  0  0  0
  1  3  2  0  0  0  0
  1  4  1  0  0  0  0
  4  5  1  0  0  0  0
  4  6  2  0  0  0  0
  6  7  1  0  0  0  0
  6  8  1  0  0  0  0
  8  9  1  0  0  0  0
  8 10  1  0  0  0  0
  8 11  1  0  0  0  0
 11 12  1  0  0  0  0
 11 13  1  0  0  0  0
 11 14  1  0  0  0  0
 14 15  1  0  0  0  0
 14 16  1  0  0  0  0
 14 17  1  0  0  0  0
M  END
> <VConfSearch Rank>
189

> <Conf_Id>
36

> <Delta U+W>
0.000

> <U+W>
-53.409

> <U>
9.048

> <W>
-62.457

> <W(PB)>
-64.540

> <W(SA)>
2.084

> <Valence>
2.652

> <Coulomb>
5.578

> <VdW>
0.818

> <VdW6>
-4.534

> <VdW12>
5.352

> <Bond>
0.063

> <Angle>
2.579

> <Pdih>
0.010

> <Idih>
0.000

> <Tether>
0.000

$$$$
VeraChem MOL file


 17 16  0  0  0  0  0  0  0  0999 V2000     
   18.2713   21.5624   20.4157 C   0  0  0  0  0  0  0  0  0  0  0  0
   18.1705   21.2605   19.2414 O   0  5  0  0  0  0  0  0  0  0  0  0
   17.9687   22.6593   20.8435 O   0  0  0  0  0  0  0  0  0  0  0  0
   18.7836   20.5616   21.3904 C   0  0  0  0  0  0  0  0  0  0  0  0
   18.8487   20.8954   22.4235 H   0  0  0  0  0  0  0  0  0  0  0  0
   19.1579   19.3060   21.0552 C   0  0  0  0  0  0  0  0  0  0  0  0
   19.0988   18.9618   20.0228 H   0  0  0  0  0  0  0  0  0  0  0  0
   19.6797   18.2948   22.0524 C   0  0  0  0  0  0  0  0  0  0  0  0
   19.4982   17.2792   21.6757 H   0  0  0  0  0  0  0  0  0  0  0  0
   19.1274   18.3807   22.9982 H   0  0  0  0  0  0  0  0  0  0  0  0
   21.1880   18.4874   22.3111 C   0  0  0  0  0  0  0  0  0  0  0  0
   21.7384   18.3990   21.3642 H   0  0  0  0  0  0  0  0  0  0  0  0
   21.3709   19.5018   22.6921 H   0  0  0  0  0  0  0  0  0  0  0  0
   21.7296   17.4545   23.3198 C   0  0  0  0  0  0  0  0  0  0  0  0
   21.5878   16.4310   22.9486 H   0  0  0  0  0  0  0  0  0  0  0  0
   22.8032   17.6072   23.4909 H   0  0  0  0  0  0  0  0  0  0  0  0
   21.2165   17.5430   24.2864 H   0  0  0  0  0  0  0  0  0  0  0  0
  1  2  1  0  0  0  0
  1  3  2  0  0  0  0
  1  4  1  0  0  0  0
  4  5  1  0  0  0  0
  4  6  2  0  0  0  0
  6  7  1  0  0  0  0
  6  8  1  0  0  0  0
  8  9  1  0  0  0  0
  8 10  1  0  0  0  0
  8 11  1  0  0  0  0
 11 12  1  0  0  0  0
 11 13  1  0  0  0  0
 11 14  1  0  0  0  0
 14 15  1  0  0  0  0
 14 16  1  0  0  0  0
 14 17  1  0  0  0  0
M  END
> <VConfSearch Rank>
190

> <Conf_Id>
1

> <Delta U+W>
0.030

> <U+W>
-53.378

> <U>
9.048

> <W>
-62.426

> <W(PB)>
-64.506

> <W(SA)>
2.080

> <Valence>
2.652

> <Coulomb>
5.578

> <VdW>
0.818

> <VdW6>
-4.535

> <VdW12>
5.352

> <Bond>
0.063

> <Angle>
2.579

> <Pdih>
0.010

> <Idih>
0.000

> <Tether>
0.000

$$$$
VeraChem MOL file


 17 16  0  0  0  0  0  0  0  0999 V2000     
   18.5311   21.7627   22.4230 C   0  0  0  0  0  0  0  0  0  0  0  0
   17.4092   21.3583   22.6647 O   0  5  0  0  0  0  0  0  0  0  0  0
   18.8821   22.9056   22.6427 O   0  0  0  0  0  0  0  0  0  0  0  0
   19.5340   20.8378   21.8292 C   0  0  0  0  0  0  0  0  0  0  0  0
   20.5165   21.2627   21.6372 H   0  0  0  0  0  0  0  0  0  0  0  0
   19.2826   19.5421   21.5343 C   0  0  0  0  0  0  0  0  0  0  0  0
   18.3028   19.1051   21.7256 H   0  0  0  0  0  0  0  0  0  0  0  0
   20.3098   18.6055   20.9335 C   0  0  0  0  0  0  0  0  0  0  0  0
   20.8900   19.1377   20.1675 H   0  0  0  0  0  0  0  0  0  0  0  0
   19.8037   17.7798   20.4154 H   0  0  0  0  0  0  0  0  0  0  0  0
   21.2760   18.0344   21.9945 C   0  0  0  0  0  0  0  0  0  0  0  0
   22.0583   17.4504   21.4905 H   0  0  0  0  0  0  0  0  0  0  0  0
   21.7849   18.8584   22.5138 H   0  0  0  0  0  0  0  0  0  0  0  0
   20.5593   17.1350   23.0241 C   0  0  0  0  0  0  0  0  0  0  0  0
   20.0534   16.2964   22.5280 H   0  0  0  0  0  0  0  0  0  0  0  0
   21.2792   16.7201   23.7414 H   0  0  0  0  0  0  0  0  0  0  0  0
   19.8087   17.7016   23.5904 H   0  0  0  0  0  0  0  0  0  0  0  0
  1  2  1  0  0  0  0
  1  3  2  0  0  0  0
  1  4  1  0  0  0  0
  4  5  1  0  0  0  0
  4  6  2  0  0  0  0
  6  7  1  0  0  0  0
  6  8  1  0  0  0  0
  8  9  1  0  0  0  0
  8 10  1  0  0  0  0
  8 11  1  0  0  0  0
 11 12  1  0  0  0  0
 11 13  1  0  0  0  0
 11 14  1  0  0  0  0
 14 15  1  0  0  0  0
 14 16  1  0  0  0  0
 14 17  1  0  0  0  0
M  END
> <VConfSearch Rank>
191

> <Conf_Id>
3

> <Delta U+W>
0.531

> <U+W>
-52.878

> <U>
10.067

> <W>
-62.945

> <W(PB)>
-64.982

> <W(SA)>
2.037

> <Valence>
2.779

> <Coulomb>
6.474

> <VdW>
0.815

> <VdW6>
-5.088

> <VdW12>
5.902

> <Bond>
0.078

> <Angle>
2.651

> <Pdih>
0.050

> <Idih>
0.000

> <Tether>
0.000

$$$$
VeraChem MOL file


 17 16  0  0  0  0  0  0  0  0999 V2000     
   22.5306   20.4974   22.8786 C   0  0  0  0  0  0  0  0  0  0  0  0
   23.4390   20.1057   23.5851 O   0  5  0  0  0  0  0  0  0  0  0  0
   22.3297   21.6763   22.6543 O   0  0  0  0  0  0  0  0  0  0  0  0
   21.6411   19.4712   22.2706 C   0  0  0  0  0  0  0  0  0  0  0  0
   21.8765   18.4372   22.5118 H   0  0  0  0  0  0  0  0  0  0  0  0
   20.5926   19.7631   21.4676 C   0  0  0  0  0  0  0  0  0  0  0  0
   20.3475   20.7966   21.2237 H   0  0  0  0  0  0  0  0  0  0  0  0
   19.6872   18.7162   20.8522 C   0  0  0  0  0  0  0  0  0  0  0  0
   20.1628   17.7265   20.8850 H   0  0  0  0  0  0  0  0  0  0  0  0
   19.5406   18.9493   19.7891 H   0  0  0  0  0  0  0  0  0  0  0  0
   18.3087   18.6526   21.5457 C   0  0  0  0  0  0  0  0  0  0  0  0
   17.8334   19.6429   21.5157 H   0  0  0  0  0  0  0  0  0  0  0  0
   17.6547   17.9734   20.9817 H   0  0  0  0  0  0  0  0  0  0  0  0
   18.4010   18.1638   23.0070 C   0  0  0  0  0  0  0  0  0  0  0  0
   18.9957   18.8544   23.6189 H   0  0  0  0  0  0  0  0  0  0  0  0
   17.4011   18.0939   23.4545 H   0  0  0  0  0  0  0  0  0  0  0  0
   18.8667   17.1712   23.0602 H   0  0  0  0  0  0  0  0  0  0  0  0
  1  2  1  0  0  0  0
  1  3  2  0  0  0  0
  1  4  1  0  0  0  0
  4  5  1  0  0  0  0
  4  6  2  0  0  0  0
  6  7  1  0  0  0  0
  6  8  1  0  0  0  0
  8  9  1  0  0  0  0
  8 10  1  0  0  0  0
  8 11  1  0  0  0  0
 11 12  1  0  0  0  0
 11 13  1  0  0  0  0
 11 14  1  0  0  0  0
 14 15  1  0  0  0  0
 14 16  1  0  0  0  0
 14 17  1  0  0  0  0
M  END
> <VConfSearch Rank>
192

> <Conf_Id>
45

> <Delta U+W>
0.562

> <U+W>
-52.846

> <U>
10.243

> <W>
-63.089

> <W(PB)>
-65.116

> <W(SA)>
2.026

> <Valence>
2.822

> <Coulomb>
6.637

> <VdW>
0.785

> <VdW6>
-5.216

> <VdW12>
6.001

> <Bond>
0.080

> <Angle>
2.678

> <Pdih>
0.064

> <Idih>
0.000

> <Tether>
0.000

$$$$
VeraChem MOL file


 17 16  0  0  0  0  0  0  0  0999 V2000     
   23.1142   20.2016   21.2338 C   0  0  0  0  0  0  0  0  0  0  0  0
   23.9734   20.6001   21.9959 O   0  5  0  0  0  0  0  0  0  0  0  0
   23.1818   20.3473   20.0277 O   0  0  0  0  0  0  0  0  0  0  0  0
   21.9387   19.5072   21.8254 C   0  0  0  0  0  0  0  0  0  0  0  0
   21.9404   19.4104   22.9087 H   0  0  0  0  0  0  0  0  0  0  0  0
   20.9100   19.0145   21.0988 C   0  0  0  0  0  0  0  0  0  0  0  0
   20.8970   19.1081   20.0131 H   0  0  0  0  0  0  0  0  0  0  0  0
   19.7170   18.3114   21.7086 C   0  0  0  0  0  0  0  0  0  0  0  0
   20.0413   17.6804   22.5473 H   0  0  0  0  0  0  0  0  0  0  0  0
   19.2680   17.6379   20.9662 H   0  0  0  0  0  0  0  0  0  0  0  0
   18.6582   19.3215   22.1961 C   0  0  0  0  0  0  0  0  0  0  0  0
   19.1048   19.9935   22.9421 H   0  0  0  0  0  0  0  0  0  0  0  0
   18.3340   19.9501   21.3551 H   0  0  0  0  0  0  0  0  0  0  0  0
   17.4346   18.6124   22.8105 C   0  0  0  0  0  0  0  0  0  0  0  0
   16.9496   17.9574   22.0749 H   0  0  0  0  0  0  0  0  0  0  0  0
   17.7276   18.0008   23.6740 H   0  0  0  0  0  0  0  0  0  0  0  0
   16.6930   19.3466   23.1514 H   0  0  0  0  0  0  0  0  0  0  0  0
  1  2  1  0  0  0  0
  1  3  2  0  0  0  0
  1  4  1  0  0  0  0
  4  5  1  0  0  0  0
  4  6  2  0  0  0  0
  6  7  1  0  0  0  0
  6  8  1  0  0  0  0
  8  9  1  0  0  0  0
  8 10  1  0  0  0  0
  8 11  1  0  0  0  0
 11 12  1  0  0  0  0
 11 13  1  0  0  0  0
 11 14  1  0  0  0  0
 14 15  1  0  0  0  0
 14 16  1  0  0  0  0
 14 17  1  0  0  0  0
M  END
> <VConfSearch Rank>
193

> <Conf_Id>
36

> <Delta U+W>
0.000

> <U+W>
-53.409

> <U>
9.048

> <W>
-62.457

> <W(PB)>
-64.540

> <W(SA)>
2.084

> <Valence>
2.652

> <Coulomb>
5.578

> <VdW>
0.818

> <VdW6>
-4.534

> <VdW12>
5.352

> <Bond>
0.063

> <Angle>
2.579

> <Pdih>
0.010

> <Idih>
0.000

> <Tether>
0.000

$$$$
VeraChem MOL file


 17 16  0  0  0  0  0  0  0  0999 V2000     
   18.0819   17.4892   24.1656 C   0  0  0  0  0  0  0  0  0  0  0  0
   17.2349   16.8840   23.5358 O   0  5  0  0  0  0  0  0  0  0  0  0
   18.0395   17.6185   25.3735 O   0  0  0  0  0  0  0  0  0  0  0  0
   19.2305   18.1057   23.4480 C   0  0  0  0  0  0  0  0  0  0  0  0
   19.9514   18.6317   24.0697 H   0  0  0  0  0  0  0  0  0  0  0  0
   19.4043   18.0419   22.1083 C   0  0  0  0  0  0  0  0  0  0  0  0
   18.6870   17.5193   21.4757 H   0  0  0  0  0  0  0  0  0  0  0  0
   20.5744   18.6732   21.3862 C   0  0  0  0  0  0  0  0  0  0  0  0
   20.7495   18.1462   20.4386 H   0  0  0  0  0  0  0  0  0  0  0  0
   21.4901   18.5576   21.9819 H   0  0  0  0  0  0  0  0  0  0  0  0
   20.3211   20.1687   21.1059 C   0  0  0  0  0  0  0  0  0  0  0  0
   19.4060   20.2816   20.5081 H   0  0  0  0  0  0  0  0  0  0  0  0
   20.1497   20.6982   22.0534 H   0  0  0  0  0  0  0  0  0  0  0  0
   21.5055   20.8175   20.3617 C   0  0  0  0  0  0  0  0  0  0  0  0
   21.6786   20.3266   19.3950 H   0  0  0  0  0  0  0  0  0  0  0  0
   21.3071   21.8803   20.1713 H   0  0  0  0  0  0  0  0  0  0  0  0
   22.4278   20.7456   20.9529 H   0  0  0  0  0  0  0  0  0  0  0  0
  1  2  1  0  0  0  0
  1  3  2  0  0  0  0
  1  4  1  0  0  0  0
  4  5  1  0  0  0  0
  4  6  2  0  0  0  0
  6  7  1  0  0  0  0
  6  8  1  0  0  0  0
  8  9  1  0  0  0  0
  8 10  1  0  0  0  0
  8 11  1  0  0  0  0
 11 12  1  0  0  0  0
 11 13  1  0  0  0  0
 11 14  1  0  0  0  0
 14 15  1  0  0  0  0
 14 16  1  0  0  0  0
 14 17  1  0  0  0  0
M  END
> <VConfSearch Rank>
194

> <Conf_Id>
1

> <Delta U+W>
0.030

> <U+W>
-53.378

> <U>
9.048

> <W>
-62.426

> <W(PB)>
-64.506

> <W(SA)>
2.080

> <Valence>
2.652

> <Coulomb>
5.578

> <VdW>
0.818

> <VdW6>
-4.535

> <VdW12>
5.352

> <Bond>
0.063

> <Angle>
2.579

> <Pdih>
0.010

> <Idih>
0.000

> <Tether>
0.000

$$$$
VeraChem MOL file


 17 16  0  0  0  0  0  0  0  0999 V2000     
   22.5334   18.3269   20.4420 C   0  0  0  0  0  0  0  0  0  0  0  0
   23.3366   19.1137   20.9070 O   0  5  0  0  0  0  0  0  0  0  0  0
   22.8631   17.3552   19.7902 O   0  0  0  0  0  0  0  0  0  0  0  0
   21.0782   18.5439   20.6644 C   0  0  0  0  0  0  0  0  0  0  0  0
   20.4149   17.8047   20.2213 H   0  0  0  0  0  0  0  0  0  0  0  0
   20.5698   19.5798   21.3697 C   0  0  0  0  0  0  0  0  0  0  0  0
   21.2255   20.3242   21.8208 H   0  0  0  0  0  0  0  0  0  0  0  0
   19.0875   19.7919   21.5952 C   0  0  0  0  0  0  0  0  0  0  0  0
   18.5380   19.5623   20.6722 H   0  0  0  0  0  0  0  0  0  0  0  0
   18.8912   20.8504   21.8130 H   0  0  0  0  0  0  0  0  0  0  0  0
   18.5367   18.9177   22.7431 C   0  0  0  0  0  0  0  0  0  0  0  0
   17.4451   19.0337   22.7909 H   0  0  0  0  0  0  0  0  0  0  0  0
   18.7305   17.8578   22.5274 H   0  0  0  0  0  0  0  0  0  0  0  0
   19.1438   19.2889   24.1129 C   0  0  0  0  0  0  0  0  0  0  0  0
   18.9511   20.3421   24.3555 H   0  0  0  0  0  0  0  0  0  0  0  0
   18.7064   18.6723   24.9088 H   0  0  0  0  0  0  0  0  0  0  0  0
   20.2298   19.1282   24.1215 H   0  0  0  0  0  0  0  0  0  0  0  0
  1  2  1  0  0  0  0
  1  3  2  0  0  0  0
  1  4  1  0  0  0  0
  4  5  1  0  0  0  0
  4  6  2  0  0  0  0
  6  7  1  0  0  0  0
  6  8  1  0  0  0  0
  8  9  1  0  0  0  0
  8 10  1  0  0  0  0
  8 11  1  0  0  0  0
 11 12  1  0  0  0  0
 11 13  1  0  0  0  0
 11 14  1  0  0  0  0
 14 15  1  0  0  0  0
 14 16  1  0  0  0  0
 14 17  1  0  0  0  0
M  END
> <VConfSearch Rank>
195

> <Conf_Id>
3

> <Delta U+W>
0.531

> <U+W>
-52.878

> <U>
10.067

> <W>
-62.945

> <W(PB)>
-64.982

> <W(SA)>
2.037

> <Valence>
2.779

> <Coulomb>
6.474

> <VdW>
0.815

> <VdW6>
-5.088

> <VdW12>
5.902

> <Bond>
0.078

> <Angle>
2.651

> <Pdih>
0.050

> <Idih>
0.000

> <Tether>
0.000

$$$$
VeraChem MOL file


 17 16  0  0  0  0  0  0  0  0999 V2000     
   20.4290   18.5376   25.0089 C   0  0  0  0  0  0  0  0  0  0  0  0
   21.2096   19.0534   25.7850 O   0  5  0  0  0  0  0  0  0  0  0  0
   19.9313   17.4442   25.2018 O   0  0  0  0  0  0  0  0  0  0  0  0
   20.0801   19.2977   23.7781 C   0  0  0  0  0  0  0  0  0  0  0  0
   20.5599   20.2674   23.6680 H   0  0  0  0  0  0  0  0  0  0  0  0
   19.2290   18.8454   22.8290 C   0  0  0  0  0  0  0  0  0  0  0  0
   18.7468   17.8734   22.9297 H   0  0  0  0  0  0  0  0  0  0  0  0
   18.8779   19.6203   21.5758 C   0  0  0  0  0  0  0  0  0  0  0  0
   19.1452   20.6798   21.6890 H   0  0  0  0  0  0  0  0  0  0  0  0
   17.7896   19.5938   21.4311 H   0  0  0  0  0  0  0  0  0  0  0  0
   19.5645   19.0435   20.3184 C   0  0  0  0  0  0  0  0  0  0  0  0
   19.2998   17.9829   20.2059 H   0  0  0  0  0  0  0  0  0  0  0  0
   19.1765   19.5597   19.4294 H   0  0  0  0  0  0  0  0  0  0  0  0
   21.1001   19.1951   20.3577 C   0  0  0  0  0  0  0  0  0  0  0  0
   21.5319   18.6373   21.1988 H   0  0  0  0  0  0  0  0  0  0  0  0
   21.5498   18.8108   19.4331 H   0  0  0  0  0  0  0  0  0  0  0  0
   21.3879   20.2494   20.4622 H   0  0  0  0  0  0  0  0  0  0  0  0
  1  2  1  0  0  0  0
  1  3  2  0  0  0  0
  1  4  1  0  0  0  0
  4  5  1  0  0  0  0
  4  6  2  0  0  0  0
  6  7  1  0  0  0  0
  6  8  1  0  0  0  0
  8  9  1  0  0  0  0
  8 10  1  0  0  0  0
  8 11  1  0  0  0  0
 11 12  1  0  0  0  0
 11 13  1  0  0  0  0
 11 14  1  0  0  0  0
 14 15  1  0  0  0  0
 14 16  1  0  0  0  0
 14 17  1  0  0  0  0
M  END
> <VConfSearch Rank>
196

> <Conf_Id>
45

> <Delta U+W>
0.562

> <U+W>
-52.846

> <U>
10.243

> <W>
-63.089

> <W(PB)>
-65.116

> <W(SA)>
2.026

> <Valence>
2.822

> <Coulomb>
6.637

> <VdW>
0.785

> <VdW6>
-5.216

> <VdW12>
6.001

> <Bond>
0.080

> <Angle>
2.678

> <Pdih>
0.064

> <Idih>
0.000

> <Tether>
0.000

$$$$
VeraChem MOL file


 17 16  0  0  0  0  0  0  0  0999 V2000     
   17.5185   20.6954   23.5762 C   0  0  0  0  0  0  0  0  0  0  0  0
   16.3145   20.5788   23.4559 O   0  5  0  0  0  0  0  0  0  0  0  0
   18.0353   21.6057   24.1965 O   0  0  0  0  0  0  0  0  0  0  0  0
   18.3770   19.6668   22.9289 C   0  0  0  0  0  0  0  0  0  0  0  0
   17.8521   18.8809   22.3906 H   0  0  0  0  0  0  0  0  0  0  0  0
   19.7285   19.6724   22.9799 C   0  0  0  0  0  0  0  0  0  0  0  0
   20.2646   20.4563   23.5145 H   0  0  0  0  0  0  0  0  0  0  0  0
   20.5943   18.6235   22.3170 C   0  0  0  0  0  0  0  0  0  0  0  0
   20.1270   17.6342   22.4147 H   0  0  0  0  0  0  0  0  0  0  0  0
   21.5616   18.5647   22.8341 H   0  0  0  0  0  0  0  0  0  0  0  0
   20.8248   18.9455   20.8262 C   0  0  0  0  0  0  0  0  0  0  0  0
   19.8581   19.0006   20.3065 H   0  0  0  0  0  0  0  0  0  0  0  0
   21.2941   19.9345   20.7312 H   0  0  0  0  0  0  0  0  0  0  0  0
   21.7144   17.8859   20.1454 C   0  0  0  0  0  0  0  0  0  0  0  0
   22.7000   17.8326   20.6262 H   0  0  0  0  0  0  0  0  0  0  0  0
   21.2522   16.8915   20.1994 H   0  0  0  0  0  0  0  0  0  0  0  0
   21.8669   18.1317   19.0864 H   0  0  0  0  0  0  0  0  0  0  0  0
  1  2  1  0  0  0  0
  1  3  2  0  0  0  0
  1  4  1  0  0  0  0
  4  5  1  0  0  0  0
  4  6  2  0  0  0  0
  6  7  1  0  0  0  0
  6  8  1  0  0  0  0
  8  9  1  0  0  0  0
  8 10  1  0  0  0  0
  8 11  1  0  0  0  0
 11 12  1  0  0  0  0
 11 13  1  0  0  0  0
 11 14  1  0  0  0  0
 14 15  1  0  0  0  0
 14 16  1  0  0  0  0
 14 17  1  0  0  0  0
M  END
> <VConfSearch Rank>
197

> <Conf_Id>
36

> <Delta U+W>
0.000

> <U+W>
-53.409

> <U>
9.048

> <W>
-62.457

> <W(PB)>
-64.540

> <W(SA)>
2.084

> <Valence>
2.652

> <Coulomb>
5.578

> <VdW>
0.818

> <VdW6>
-4.534

> <VdW12>
5.352

> <Bond>
0.063

> <Angle>
2.579

> <Pdih>
0.010

> <Idih>
0.000

> <Tether>
0.000

$$$$
VeraChem MOL file


 17 16  0  0  0  0  0  0  0  0999 V2000     
   20.6398   17.1816   24.6213 C   0  0  0  0  0  0  0  0  0  0  0  0
   21.4799   17.7663   25.2792 O   0  5  0  0  0  0  0  0  0  0  0  0
   20.3039   16.0356   24.8481 O   0  0  0  0  0  0  0  0  0  0  0  0
   19.9796   17.8795   23.4850 C   0  0  0  0  0  0  0  0  0  0  0  0
   19.2384   17.3007   22.9387 H   0  0  0  0  0  0  0  0  0  0  0  0
   20.2554   19.1520   23.1192 C   0  0  0  0  0  0  0  0  0  0  0  0
   20.9978   19.7403   23.6584 H   0  0  0  0  0  0  0  0  0  0  0  0
   19.5806   19.8538   21.9611 C   0  0  0  0  0  0  0  0  0  0  0  0
   19.6139   20.9402   22.1195 H   0  0  0  0  0  0  0  0  0  0  0  0
   18.5185   19.5763   21.9212 H   0  0  0  0  0  0  0  0  0  0  0  0
   20.2601   19.5067   20.6207 C   0  0  0  0  0  0  0  0  0  0  0  0
   21.3218   19.7872   20.6623 H   0  0  0  0  0  0  0  0  0  0  0  0
   20.2240   18.4204   20.4587 H   0  0  0  0  0  0  0  0  0  0  0  0
   19.5838   20.2255   19.4360 C   0  0  0  0  0  0  0  0  0  0  0  0
   19.6339   21.3155   19.5573 H   0  0  0  0  0  0  0  0  0  0  0  0
   20.0805   19.9665   18.4919 H   0  0  0  0  0  0  0  0  0  0  0  0
   18.5275   19.9378   19.3532 H   0  0  0  0  0  0  0  0  0  0  0  0
  1  2  1  0  0  0  0
  1  3  2  0  0  0  0
  1  4  1  0  0  0  0
  4  5  1  0  0  0  0
  4  6  2  0  0  0  0
  6  7  1  0  0  0  0
  6  8  1  0  0  0  0
  8  9  1  0  0  0  0
  8 10  1  0  0  0  0
  8 11  1  0  0  0  0
 11 12  1  0  0  0  0
 11 13  1  0  0  0  0
 11 14  1  0  0  0  0
 14 15  1  0  0  0  0
 14 16  1  0  0  0  0
 14 17  1  0  0  0  0
M  END
> <VConfSearch Rank>
198

> <Conf_Id>
1

> <Delta U+W>
0.030

> <U+W>
-53.378

> <U>
9.048

> <W>
-62.426

> <W(PB)>
-64.506

> <W(SA)>
2.080

> <Valence>
2.652

> <Coulomb>
5.578

> <VdW>
0.818

> <VdW6>
-4.535

> <VdW12>
5.352

> <Bond>
0.063

> <Angle>
2.579

> <Pdih>
0.010

> <Idih>
0.000

> <Tether>
0.000

$$$$
VeraChem MOL file


 17 16  0  0  0  0  0  0  0  0999 V2000     
   22.9598   19.9862   21.8757 C   0  0  0  0  0  0  0  0  0  0  0  0
   23.4192   19.4220   22.8510 O   0  5  0  0  0  0  0  0  0  0  0  0
   23.6554   20.4495   20.9929 O   0  0  0  0  0  0  0  0  0  0  0  0
   21.4854   20.1308   21.7364 C   0  0  0  0  0  0  0  0  0  0  0  0
   21.1413   20.6456   20.8424 H   0  0  0  0  0  0  0  0  0  0  0  0
   20.5937   19.6634   22.6394 C   0  0  0  0  0  0  0  0  0  0  0  0
   20.9274   19.1432   23.5369 H   0  0  0  0  0  0  0  0  0  0  0  0
   19.0942   19.8109   22.4889 C   0  0  0  0  0  0  0  0  0  0  0  0
   18.8597   20.8111   22.1001 H   0  0  0  0  0  0  0  0  0  0  0  0
   18.6123   19.7446   23.4737 H   0  0  0  0  0  0  0  0  0  0  0  0
   18.4906   18.7469   21.5460 C   0  0  0  0  0  0  0  0  0  0  0  0
   17.4251   18.9662   21.3922 H   0  0  0  0  0  0  0  0  0  0  0  0
   18.9700   18.8116   20.5594 H   0  0  0  0  0  0  0  0  0  0  0  0
   18.6356   17.3140   22.1015 C   0  0  0  0  0  0  0  0  0  0  0  0
   18.1522   17.2224   23.0828 H   0  0  0  0  0  0  0  0  0  0  0  0
   18.1674   16.5883   21.4239 H   0  0  0  0  0  0  0  0  0  0  0  0
   19.6922   17.0372   22.2126 H   0  0  0  0  0  0  0  0  0  0  0  0
  1  2  1  0  0  0  0
  1  3  2  0  0  0  0
  1  4  1  0  0  0  0
  4  5  1  0  0  0  0
  4  6  2  0  0  0  0
  6  7  1  0  0  0  0
  6  8  1  0  0  0  0
  8  9  1  0  0  0  0
  8 10  1  0  0  0  0
  8 11  1  0  0  0  0
 11 12  1  0  0  0  0
 11 13  1  0  0  0  0
 11 14  1  0  0  0  0
 14 15  1  0  0  0  0
 14 16  1  0  0  0  0
 14 17  1  0  0  0  0
M  END
> <VConfSearch Rank>
199

> <Conf_Id>
3

> <Delta U+W>
0.531

> <U+W>
-52.878

> <U>
10.067

> <W>
-62.945

> <W(PB)>
-64.982

> <W(SA)>
2.037

> <Valence>
2.779

> <Coulomb>
6.474

> <VdW>
0.815

> <VdW6>
-5.088

> <VdW12>
5.902

> <Bond>
0.078

> <Angle>
2.651

> <Pdih>
0.050

> <Idih>
0.000

> <Tether>
0.000

$$$$
VeraChem MOL file


 17 16  0  0  0  0  0  0  0  0999 V2000     
   19.2173   20.9783   19.8380 C   0  0  0  0  0  0  0  0  0  0  0  0
   18.1352   21.1635   19.3159 O   0  5  0  0  0  0  0  0  0  0  0  0
   20.2687   21.2712   19.3004 O   0  0  0  0  0  0  0  0  0  0  0  0
   19.2302   20.3687   21.1953 C   0  0  0  0  0  0  0  0  0  0  0  0
   18.2564   20.1316   21.6176 H   0  0  0  0  0  0  0  0  0  0  0  0
   20.3590   20.1046   21.8921 C   0  0  0  0  0  0  0  0  0  0  0  0
   21.3389   20.3356   21.4749 H   0  0  0  0  0  0  0  0  0  0  0  0
   20.3690   19.4813   23.2726 C   0  0  0  0  0  0  0  0  0  0  0  0
   19.3782   19.5617   23.7401 H   0  0  0  0  0  0  0  0  0  0  0  0
   21.0568   20.0463   23.9159 H   0  0  0  0  0  0  0  0  0  0  0  0
   20.8110   18.0018   23.2445 C   0  0  0  0  0  0  0  0  0  0  0  0
   21.8009   17.9201   22.7746 H   0  0  0  0  0  0  0  0  0  0  0  0
   20.9228   17.6414   24.2764 H   0  0  0  0  0  0  0  0  0  0  0  0
   19.8060   17.0957   22.5016 C   0  0  0  0  0  0  0  0  0  0  0  0
   19.7159   17.3858   21.4467 H   0  0  0  0  0  0  0  0  0  0  0  0
   20.1323   16.0482   22.5356 H   0  0  0  0  0  0  0  0  0  0  0  0
   18.8102   17.1559   22.9596 H   0  0  0  0  0  0  0  0  0  0  0  0
  1  2  1  0  0  0  0
  1  3  2  0  0  0  0
  1  4  1  0  0  0  0
  4  5  1  0  0  0  0
  4  6  2  0  0  0  0
  6  7  1  0  0  0  0
  6  8  1  0  0  0  0
  8  9  1  0  0  0  0
  8 10  1  0  0  0  0
  8 11  1  0  0  0  0
 11 12  1  0  0  0  0
 11 13  1  0  0  0  0
 11 14  1  0  0  0  0
 14 15  1  0  0  0  0
 14 16  1  0  0  0  0
 14 17  1  0  0  0  0
M  END
> <VConfSearch Rank>
200

> <Conf_Id>
45

> <Delta U+W>
0.562

> <U+W>
-52.846

> <U>
10.243

> <W>
-63.089

> <W(PB)>
-65.116

> <W(SA)>
2.026

> <Valence>
2.822

> <Coulomb>
6.637

> <VdW>
0.785

> <VdW6>
-5.216

> <VdW12>
6.001

> <Bond>
0.080

> <Angle>
2.678

> <Pdih>
0.064

> <Idih>
0.000

> <Tether>
0.000

$$$$
VeraChem MOL file


 17 16  0  0  0  0  0  0  0  0999 V2000     
   20.0103   20.8753   19.0345 C   0  0  0  0  0  0  0  0  0  0  0  0
   20.1388   22.0720   18.8644 O   0  5  0  0  0  0  0  0  0  0  0  0
   19.6317   20.1204   18.1586 O   0  0  0  0  0  0  0  0  0  0  0  0
   20.3377   20.3331   20.3810 C   0  0  0  0  0  0  0  0  0  0  0  0
   20.6701   21.0610   21.1177 H   0  0  0  0  0  0  0  0  0  0  0  0
   20.2398   19.0253   20.7112 C   0  0  0  0  0  0  0  0  0  0  0  0
   19.9055   18.2879   19.9815 H   0  0  0  0  0  0  0  0  0  0  0  0
   20.5727   18.4824   22.0837 C   0  0  0  0  0  0  0  0  0  0  0  0
   21.4505   19.0027   22.4906 H   0  0  0  0  0  0  0  0  0  0  0  0
   20.8476   17.4221   22.0030 H   0  0  0  0  0  0  0  0  0  0  0  0
   19.3820   18.6347   23.0522 C   0  0  0  0  0  0  0  0  0  0  0  0
   19.1084   19.6956   23.1372 H   0  0  0  0  0  0  0  0  0  0  0  0
   18.5059   18.1118   22.6440 H   0  0  0  0  0  0  0  0  0  0  0  0
   19.7101   18.0751   24.4510 C   0  0  0  0  0  0  0  0  0  0  0  0
   19.9566   17.0064   24.3988 H   0  0  0  0  0  0  0  0  0  0  0  0
   20.5644   18.6029   24.8948 H   0  0  0  0  0  0  0  0  0  0  0  0
   18.8519   18.1923   25.1255 H   0  0  0  0  0  0  0  0  0  0  0  0
  1  2  1  0  0  0  0
  1  3  2  0  0  0  0
  1  4  1  0  0  0  0
  4  5  1  0  0  0  0
  4  6  2  0  0  0  0
  6  7  1  0  0  0  0
  6  8  1  0  0  0  0
  8  9  1  0  0  0  0
  8 10  1  0  0  0  0
  8 11  1  0  0  0  0
 11 12  1  0  0  0  0
 11 13  1  0  0  0  0
 11 14  1  0  0  0  0
 14 15  1  0  0  0  0
 14 16  1  0  0  0  0
 14 17  1  0  0  0  0
M  END
> <VConfSearch Rank>
201

> <Conf_Id>
36

> <Delta U+W>
0.000

> <U+W>
-53.409

> <U>
9.048

> <W>
-62.457

> <W(PB)>
-64.540

> <W(SA)>
2.084

> <Valence>
2.652

> <Coulomb>
5.578

> <VdW>
0.818

> <VdW6>
-4.534

> <VdW12>
5.352

> <Bond>
0.063

> <Angle>
2.579

> <Pdih>
0.010

> <Idih>
0.000

> <Tether>
0.000

$$$$
VeraChem MOL file


 17 16  0  0  0  0  0  0  0  0999 V2000     
   17.5337   16.8152   21.7254 C   0  0  0  0  0  0  0  0  0  0  0  0
   17.4311   16.3136   22.8292 O   0  5  0  0  0  0  0  0  0  0  0  0
   16.9679   16.3732   20.7445 O   0  0  0  0  0  0  0  0  0  0  0  0
   18.3821   18.0240   21.5434 C   0  0  0  0  0  0  0  0  0  0  0  0
   18.4306   18.4220   20.5324 H   0  0  0  0  0  0  0  0  0  0  0  0
   19.0686   18.6207   22.5444 C   0  0  0  0  0  0  0  0  0  0  0  0
   19.0288   18.2289   23.5606 H   0  0  0  0  0  0  0  0  0  0  0  0
   19.9307   19.8488   22.3504 C   0  0  0  0  0  0  0  0  0  0  0  0
   20.0147   20.3931   23.3008 H   0  0  0  0  0  0  0  0  0  0  0  0
   19.4521   20.5351   21.6385 H   0  0  0  0  0  0  0  0  0  0  0  0
   21.3386   19.4729   21.8448 C   0  0  0  0  0  0  0  0  0  0  0  0
   21.8161   18.7883   22.5596 H   0  0  0  0  0  0  0  0  0  0  0  0
   21.2566   18.9319   20.8919 H   0  0  0  0  0  0  0  0  0  0  0  0
   22.2267   20.7188   21.6534 C   0  0  0  0  0  0  0  0  0  0  0  0
   22.3513   21.2617   22.5996 H   0  0  0  0  0  0  0  0  0  0  0  0
   23.2234   20.4317   21.2937 H   0  0  0  0  0  0  0  0  0  0  0  0
   21.7864   21.4060   20.9191 H   0  0  0  0  0  0  0  0  0  0  0  0
  1  2  1  0  0  0  0
  1  3  2  0  0  0  0
  1  4  1  0  0  0  0
  4  5  1  0  0  0  0
  4  6  2  0  0  0  0
  6  7  1  0  0  0  0
  6  8  1  0  0  0  0
  8  9  1  0  0  0  0
  8 10  1  0  0  0  0
  8 11  1  0  0  0  0
 11 12  1  0  0  0  0
 11 13  1  0  0  0  0
 11 14  1  0  0  0  0
 14 15  1  0  0  0  0
 14 16  1  0  0  0  0
 14 17  1  0  0  0  0
M  END
> <VConfSearch Rank>
202

> <Conf_Id>
1

> <Delta U+W>
0.030

> <U+W>
-53.378

> <U>
9.048

> <W>
-62.426

> <W(PB)>
-64.506

> <W(SA)>
2.080

> <Valence>
2.652

> <Coulomb>
5.578

> <VdW>
0.818

> <VdW6>
-4.535

> <VdW12>
5.352

> <Bond>
0.063

> <Angle>
2.579

> <Pdih>
0.010

> <Idih>
0.000

> <Tether>
0.000

$$$$
VeraChem MOL file


 17 16  0  0  0  0  0  0  0  0999 V2000     
   22.0292   19.2702   24.3776 C   0  0  0  0  0  0  0  0  0  0  0  0
   21.9472   20.4542   24.6458 O   0  5  0  0  0  0  0  0  0  0  0  0
   22.5394   18.4582   25.1247 O   0  0  0  0  0  0  0  0  0  0  0  0
   21.4918   18.7705   23.0832 C   0  0  0  0  0  0  0  0  0  0  0  0
   21.5979   17.7028   22.9056 H   0  0  0  0  0  0  0  0  0  0  0  0
   20.8982   19.5592   22.1588 C   0  0  0  0  0  0  0  0  0  0  0  0
   20.7837   20.6297   22.3279 H   0  0  0  0  0  0  0  0  0  0  0  0
   20.3501   19.0428   20.8451 C   0  0  0  0  0  0  0  0  0  0  0  0
   21.0396   18.2976   20.4258 H   0  0  0  0  0  0  0  0  0  0  0  0
   20.3019   19.8609   20.1138 H   0  0  0  0  0  0  0  0  0  0  0  0
   18.9513   18.4068   21.0013 C   0  0  0  0  0  0  0  0  0  0  0  0
   18.6518   17.9581   20.0442 H   0  0  0  0  0  0  0  0  0  0  0  0
   18.9967   17.5870   21.7316 H   0  0  0  0  0  0  0  0  0  0  0  0
   17.8811   19.4309   21.4353 C   0  0  0  0  0  0  0  0  0  0  0  0
   17.8093   20.2541   20.7125 H   0  0  0  0  0  0  0  0  0  0  0  0
   16.8952   18.9532   21.5038 H   0  0  0  0  0  0  0  0  0  0  0  0
   18.1171   19.8578   22.4188 H   0  0  0  0  0  0  0  0  0  0  0  0
  1  2  1  0  0  0  0
  1  3  2  0  0  0  0
  1  4  1  0  0  0  0
  4  5  1  0  0  0  0
  4  6  2  0  0  0  0
  6  7  1  0  0  0  0
  6  8  1  0  0  0  0
  8  9  1  0  0  0  0
  8 10  1  0  0  0  0
  8 11  1  0  0  0  0
 11 12  1  0  0  0  0
 11 13  1  0  0  0  0
 11 14  1  0  0  0  0
 14 15  1  0  0  0  0
 14 16  1  0  0  0  0
 14 17  1  0  0  0  0
M  END
> <VConfSearch Rank>
203

> <Conf_Id>
3

> <Delta U+W>
0.531

> <U+W>
-52.878

> <U>
10.067

> <W>
-62.945

> <W(PB)>
-64.982

> <W(SA)>
2.037

> <Valence>
2.779

> <Coulomb>
6.474

> <VdW>
0.815

> <VdW6>
-5.088

> <VdW12>
5.902

> <Bond>
0.078

> <Angle>
2.651

> <Pdih>
0.050

> <Idih>
0.000

> <Tether>
0.000

$$$$
VeraChem MOL file


 17 16  0  0  0  0  0  0  0  0999 V2000     
   18.8687   18.1422   24.7173 C   0  0  0  0  0  0  0  0  0  0  0  0
   18.2969   17.1038   24.9866 O   0  5  0  0  0  0  0  0  0  0  0  0
   18.7792   19.1426   25.4041 O   0  0  0  0  0  0  0  0  0  0  0  0
   19.7114   18.1649   23.4912 C   0  0  0  0  0  0  0  0  0  0  0  0
   19.7476   17.2378   22.9238 H   0  0  0  0  0  0  0  0  0  0  0  0
   20.4007   19.2500   23.0705 C   0  0  0  0  0  0  0  0  0  0  0  0
   20.3671   20.1840   23.6311 H   0  0  0  0  0  0  0  0  0  0  0  0
   21.2556   19.2709   21.8203 C   0  0  0  0  0  0  0  0  0  0  0  0
   21.4843   18.2480   21.4915 H   0  0  0  0  0  0  0  0  0  0  0  0
   22.2210   19.7393   22.0541 H   0  0  0  0  0  0  0  0  0  0  0  0
   20.5874   20.0498   20.6662 C   0  0  0  0  0  0  0  0  0  0  0  0
   20.3559   21.0723   20.9952 H   0  0  0  0  0  0  0  0  0  0  0  0
   21.3005   20.1413   19.8354 H   0  0  0  0  0  0  0  0  0  0  0  0
   19.3027   19.3649   20.1531 C   0  0  0  0  0  0  0  0  0  0  0  0
   18.5397   19.3131   20.9406 H   0  0  0  0  0  0  0  0  0  0  0  0
   18.8777   19.9240   19.3094 H   0  0  0  0  0  0  0  0  0  0  0  0
   19.5123   18.3429   19.8115 H   0  0  0  0  0  0  0  0  0  0  0  0
  1  2  1  0  0  0  0
  1  3  2  0  0  0  0
  1  4  1  0  0  0  0
  4  5  1  0  0  0  0
  4  6  2  0  0  0  0
  6  7  1  0  0  0  0
  6  8  1  0  0  0  0
  8  9  1  0  0  0  0
  8 10  1  0  0  0  0
  8 11  1  0  0  0  0
 11 12  1  0  0  0  0
 11 13  1  0  0  0  0
 11 14  1  0  0  0  0
 14 15  1  0  0  0  0
 14 16  1  0  0  0  0
 14 17  1  0  0  0  0
M  END
> <VConfSearch Rank>
204

> <Conf_Id>
45

> <Delta U+W>
0.562

> <U+W>
-52.846

> <U>
10.243

> <W>
-63.089

> <W(PB)>
-65.116

> <W(SA)>
2.026

> <Valence>
2.822

> <Coulomb>
6.637

> <VdW>
0.785

> <VdW6>
-5.216

> <VdW12>
6.001

> <Bond>
0.080

> <Angle>
2.678

> <Pdih>
0.064

> <Idih>
0.000

> <Tether>
0.000

$$$$
VeraChem MOL file


 17 16  0  0  0  0  0  0  0  0999 V2000     
   16.6331   18.9361   21.6785 C   0  0  0  0  0  0  0  0  0  0  0  0
   15.9468   18.5304   20.7609 O   0  5  0  0  0  0  0  0  0  0  0  0
   16.1798   19.5719   22.6116 O   0  0  0  0  0  0  0  0  0  0  0  0
   18.0883   18.6280   21.6372 C   0  0  0  0  0  0  0  0  0  0  0  0
   18.4282   18.0567   20.7764 H   0  0  0  0  0  0  0  0  0  0  0  0
   18.9684   19.0168   22.5877 C   0  0  0  0  0  0  0  0  0  0  0  0
   18.6390   19.5916   23.4531 H   0  0  0  0  0  0  0  0  0  0  0  0
   20.4472   18.7012   22.5370 C   0  0  0  0  0  0  0  0  0  0  0  0
   20.6015   17.6871   22.1438 H   0  0  0  0  0  0  0  0  0  0  0  0
   20.8598   18.7078   23.5549 H   0  0  0  0  0  0  0  0  0  0  0  0
   21.2095   19.7193   21.6644 C   0  0  0  0  0  0  0  0  0  0  0  0
   20.8006   19.7109   20.6444 H   0  0  0  0  0  0  0  0  0  0  0  0
   21.0553   20.7325   22.0608 H   0  0  0  0  0  0  0  0  0  0  0  0
   22.7193   19.4100   21.6152 C   0  0  0  0  0  0  0  0  0  0  0  0
   23.1602   19.4434   22.6201 H   0  0  0  0  0  0  0  0  0  0  0  0
   22.9025   18.4131   21.1932 H   0  0  0  0  0  0  0  0  0  0  0  0
   23.2443   20.1442   20.9903 H   0  0  0  0  0  0  0  0  0  0  0  0
  1  2  1  0  0  0  0
  1  3  2  0  0  0  0
  1  4  1  0  0  0  0
  4  5  1  0  0  0  0
  4  6  2  0  0  0  0
  6  7  1  0  0  0  0
  6  8  1  0  0  0  0
  8  9  1  0  0  0  0
  8 10  1  0  0  0  0
  8 11  1  0  0  0  0
 11 12  1  0  0  0  0
 11 13  1  0  0  0  0
 11 14  1  0  0  0  0
 14 15  1  0  0  0  0
 14 16  1  0  0  0  0
 14 17  1  0  0  0  0
M  END
> <VConfSearch Rank>
205

> <Conf_Id>
36

> <Delta U+W>
0.000

> <U+W>
-53.409

> <U>
9.048

> <W>
-62.457

> <W(PB)>
-64.540

> <W(SA)>
2.084

> <Valence>
2.652

> <Coulomb>
5.578

> <VdW>
0.818

> <VdW6>
-4.534

> <VdW12>
5.352

> <Bond>
0.063

> <Angle>
2.579

> <Pdih>
0.010

> <Idih>
0.000

> <Tether>
0.000

$$$$
VeraChem MOL file


 17 16  0  0  0  0  0  0  0  0999 V2000     
   22.5703   17.2219   23.0718 C   0  0  0  0  0  0  0  0  0  0  0  0
   22.2334   16.0580   22.9616 O   0  5  0  0  0  0  0  0  0  0  0  0
   23.5580   17.5674   23.6904 O   0  0  0  0  0  0  0  0  0  0  0  0
   21.7544   18.2872   22.4286 C   0  0  0  0  0  0  0  0  0  0  0  0
   22.1107   19.3056   22.5654 H   0  0  0  0  0  0  0  0  0  0  0  0
   20.6325   18.0482   21.7122 C   0  0  0  0  0  0  0  0  0  0  0  0
   20.2654   17.0318   21.5706 H   0  0  0  0  0  0  0  0  0  0  0  0
   19.8074   19.1376   21.0628 C   0  0  0  0  0  0  0  0  0  0  0  0
   19.2500   18.7200   20.2135 H   0  0  0  0  0  0  0  0  0  0  0  0
   20.4671   19.9141   20.6522 H   0  0  0  0  0  0  0  0  0  0  0  0
   18.8215   19.7696   22.0665 C   0  0  0  0  0  0  0  0  0  0  0  0
   18.1613   18.9914   22.4742 H   0  0  0  0  0  0  0  0  0  0  0  0
   19.3779   20.1916   22.9150 H   0  0  0  0  0  0  0  0  0  0  0  0
   17.9701   20.8749   21.4099 C   0  0  0  0  0  0  0  0  0  0  0  0
   17.3785   20.4726   20.5770 H   0  0  0  0  0  0  0  0  0  0  0  0
   17.2754   21.3122   22.1387 H   0  0  0  0  0  0  0  0  0  0  0  0
   18.6055   21.6814   21.0212 H   0  0  0  0  0  0  0  0  0  0  0  0
  1  2  1  0  0  0  0
  1  3  2  0  0  0  0
  1  4  1  0  0  0  0
  4  5  1  0  0  0  0
  4  6  2  0  0  0  0
  6  7  1  0  0  0  0
  6  8  1  0  0  0  0
  8  9  1  0  0  0  0
  8 10  1  0  0  0  0
  8 11  1  0  0  0  0
 11 12  1  0  0  0  0
 11 13  1  0  0  0  0
 11 14  1  0  0  0  0
 14 15  1  0  0  0  0
 14 16  1  0  0  0  0
 14 17  1  0  0  0  0
M  END
> <VConfSearch Rank>
206

> <Conf_Id>
1

> <Delta U+W>
0.030

> <U+W>
-53.378

> <U>
9.048

> <W>
-62.426

> <W(PB)>
-64.506

> <W(SA)>
2.080

> <Valence>
2.652

> <Coulomb>
5.578

> <VdW>
0.818

> <VdW6>
-4.535

> <VdW12>
5.352

> <Bond>
0.063

> <Angle>
2.579

> <Pdih>
0.010

> <Idih>
0.000

> <Tether>
0.000

$$$$
VeraChem MOL file


 17 16  0  0  0  0  0  0  0  0999 V2000     
   20.1103   16.1205   22.8788 C   0  0  0  0  0  0  0  0  0  0  0  0
   18.9460   15.8095   22.7111 O   0  5  0  0  0  0  0  0  0  0  0  0
   21.0001   15.3021   23.0064 O   0  0  0  0  0  0  0  0  0  0  0  0
   20.4860   17.5591   22.9371 C   0  0  0  0  0  0  0  0  0  0  0  0
   21.5423   17.7680   23.0900 H   0  0  0  0  0  0  0  0  0  0  0  0
   19.6021   18.5747   22.8094 C   0  0  0  0  0  0  0  0  0  0  0  0
   18.5420   18.3767   22.6525 H   0  0  0  0  0  0  0  0  0  0  0  0
   19.9925   20.0367   22.8660 C   0  0  0  0  0  0  0  0  0  0  0  0
   20.7414   20.1876   23.6552 H   0  0  0  0  0  0  0  0  0  0  0  0
   19.1226   20.6443   23.1492 H   0  0  0  0  0  0  0  0  0  0  0  0
   20.5624   20.5451   21.5235 C   0  0  0  0  0  0  0  0  0  0  0  0
   20.9243   21.5743   21.6536 H   0  0  0  0  0  0  0  0  0  0  0  0
   21.4339   19.9398   21.2380 H   0  0  0  0  0  0  0  0  0  0  0  0
   19.5163   20.5179   20.3887 C   0  0  0  0  0  0  0  0  0  0  0  0
   18.6406   21.1274   20.6472 H   0  0  0  0  0  0  0  0  0  0  0  0
   19.9443   20.9163   19.4597 H   0  0  0  0  0  0  0  0  0  0  0  0
   19.1746   19.4938   20.1895 H   0  0  0  0  0  0  0  0  0  0  0  0
  1  2  1  0  0  0  0
  1  3  2  0  0  0  0
  1  4  1  0  0  0  0
  4  5  1  0  0  0  0
  4  6  2  0  0  0  0
  6  7  1  0  0  0  0
  6  8  1  0  0  0  0
  8  9  1  0  0  0  0
  8 10  1  0  0  0  0
  8 11  1  0  0  0  0
 11 12  1  0  0  0  0
 11 13  1  0  0  0  0
 11 14  1  0  0  0  0
 14 15  1  0  0  0  0
 14 16  1  0  0  0  0
 14 17  1  0  0  0  0
M  END
> <VConfSearch Rank>
207

> <Conf_Id>
3

> <Delta U+W>
0.531

> <U+W>
-52.878

> <U>
10.067

> <W>
-62.945

> <W(PB)>
-64.982

> <W(SA)>
2.037

> <Valence>
2.779

> <Coulomb>
6.474

> <VdW>
0.815

> <VdW6>
-5.088

> <VdW12>
5.902

> <Bond>
0.078

> <Angle>
2.651

> <Pdih>
0.050

> <Idih>
0.000

> <Tether>
0.000

$$$$
VeraChem MOL file


 17 16  0  0  0  0  0  0  0  0999 V2000     
   17.9669   21.1293   23.0553 C   0  0  0  0  0  0  0  0  0  0  0  0
   18.1420   22.2685   23.4419 O   0  5  0  0  0  0  0  0  0  0  0  0
   16.9743   20.4829   23.3331 O   0  0  0  0  0  0  0  0  0  0  0  0
   19.0255   20.5221   22.2040 C   0  0  0  0  0  0  0  0  0  0  0  0
   19.8853   21.1541   21.9941 H   0  0  0  0  0  0  0  0  0  0  0  0
   18.9642   19.2657   21.7067 C   0  0  0  0  0  0  0  0  0  0  0  0
   18.1081   18.6245   21.9152 H   0  0  0  0  0  0  0  0  0  0  0  0
   20.0448   18.6493   20.8426 C   0  0  0  0  0  0  0  0  0  0  0  0
   20.7018   19.4279   20.4315 H   0  0  0  0  0  0  0  0  0  0  0  0
   19.5765   18.1579   19.9793 H   0  0  0  0  0  0  0  0  0  0  0  0
   20.8897   17.6108   21.6125 C   0  0  0  0  0  0  0  0  0  0  0  0
   20.2330   16.8330   22.0264 H   0  0  0  0  0  0  0  0  0  0  0  0
   21.5674   17.1076   20.9092 H   0  0  0  0  0  0  0  0  0  0  0  0
   21.7228   18.2459   22.7464 C   0  0  0  0  0  0  0  0  0  0  0  0
   21.0750   18.7043   23.5049 H   0  0  0  0  0  0  0  0  0  0  0  0
   22.3388   17.4863   23.2448 H   0  0  0  0  0  0  0  0  0  0  0  0
   22.3928   19.0218   22.3539 H   0  0  0  0  0  0  0  0  0  0  0  0
  1  2  1  0  0  0  0
  1  3  2  0  0  0  0
  1  4  1  0  0  0  0
  4  5  1  0  0  0  0
  4  6  2  0  0  0  0
  6  7  1  0  0  0  0
  6  8  1  0  0  0  0
  8  9  1  0  0  0  0
  8 10  1  0  0  0  0
  8 11  1  0  0  0  0
 11 12  1  0  0  0  0
 11 13  1  0  0  0  0
 11 14  1  0  0  0  0
 14 15  1  0  0  0  0
 14 16  1  0  0  0  0
 14 17  1  0  0  0  0
M  END
> <VConfSearch Rank>
208

> <Conf_Id>
45

> <Delta U+W>
0.562

> <U+W>
-52.846

> <U>
10.243

> <W>
-63.089

> <W(PB)>
-65.116

> <W(SA)>
2.026

> <Valence>
2.822

> <Coulomb>
6.637

> <VdW>
0.785

> <VdW6>
-5.216

> <VdW12>
6.001

> <Bond>
0.080

> <Angle>
2.678

> <Pdih>
0.064

> <Idih>
0.000

> <Tether>
0.000

$$$$
VeraChem MOL file


 17 16  0  0  0  0  0  0  0  0999 V2000     
   17.6771   17.4380   20.1269 C   0  0  0  0  0  0  0  0  0  0  0  0
   17.7142   17.0750   18.9673 O   0  5  0  0  0  0  0  0  0  0  0  0
   16.6547   17.4385   20.7865 O   0  0  0  0  0  0  0  0  0  0  0  0
   18.9507   17.8959   20.7451 C   0  0  0  0  0  0  0  0  0  0  0  0
   19.8269   17.8704   20.1012 H   0  0  0  0  0  0  0  0  0  0  0  0
   19.0562   18.3271   22.0226 C   0  0  0  0  0  0  0  0  0  0  0  0
   18.1842   18.3590   22.6757 H   0  0  0  0  0  0  0  0  0  0  0  0
   20.3550   18.7933   22.6430 C   0  0  0  0  0  0  0  0  0  0  0  0
   21.1856   18.1662   22.2913 H   0  0  0  0  0  0  0  0  0  0  0  0
   20.3081   18.6670   23.7331 H   0  0  0  0  0  0  0  0  0  0  0  0
   20.6398   20.2713   22.3064 C   0  0  0  0  0  0  0  0  0  0  0  0
   20.6913   20.3986   21.2161 H   0  0  0  0  0  0  0  0  0  0  0  0
   19.8087   20.8967   22.6610 H   0  0  0  0  0  0  0  0  0  0  0  0
   21.9575   20.7570   22.9431 C   0  0  0  0  0  0  0  0  0  0  0  0
   21.9209   20.6703   24.0370 H   0  0  0  0  0  0  0  0  0  0  0  0
   22.8097   20.1672   22.5807 H   0  0  0  0  0  0  0  0  0  0  0  0
   22.1431   21.8096   22.6927 H   0  0  0  0  0  0  0  0  0  0  0  0
  1  2  1  0  0  0  0
  1  3  2  0  0  0  0
  1  4  1  0  0  0  0
  4  5  1  0  0  0  0
  4  6  2  0  0  0  0
  6  7  1  0  0  0  0
  6  8  1  0  0  0  0
  8  9  1  0  0  0  0
  8 10  1  0  0  0  0
  8 11  1  0  0  0  0
 11 12  1  0  0  0  0
 11 13  1  0  0  0  0
 11 14  1  0  0  0  0
 14 15  1  0  0  0  0
 14 16  1  0  0  0  0
 14 17  1  0  0  0  0
M  END
> <VConfSearch Rank>
209

> <Conf_Id>
36

> <Delta U+W>
0.000

> <U+W>
-53.409

> <U>
9.048

> <W>
-62.457

> <W(PB)>
-64.540

> <W(SA)>
2.084

> <Valence>
2.652

> <Coulomb>
5.578

> <VdW>
0.818

> <VdW6>
-4.534

> <VdW12>
5.352

> <Bond>
0.063

> <Angle>
2.579

> <Pdih>
0.010

> <Idih>
0.000

> <Tether>
0.000

$$$$
VeraChem MOL file


 17 16  0  0  0  0  0  0  0  0999 V2000     
   17.0527   18.1562   20.5985 C   0  0  0  0  0  0  0  0  0  0  0  0
   16.2640   19.0529   20.8313 O   0  5  0  0  0  0  0  0  0  0  0  0
   16.7112   17.0724   20.1667 O   0  0  0  0  0  0  0  0  0  0  0  0
   18.5043   18.3722   20.8439 C   0  0  0  0  0  0  0  0  0  0  0  0
   19.1547   17.5309   20.6151 H   0  0  0  0  0  0  0  0  0  0  0  0
   19.0245   19.5252   21.3225 C   0  0  0  0  0  0  0  0  0  0  0  0
   18.3818   20.3735   21.5571 H   0  0  0  0  0  0  0  0  0  0  0  0
   20.5020   19.7360   21.5709 C   0  0  0  0  0  0  0  0  0  0  0  0
   20.7339   20.8084   21.5217 H   0  0  0  0  0  0  0  0  0  0  0  0
   21.0889   19.2526   20.7780 H   0  0  0  0  0  0  0  0  0  0  0  0
   20.9259   19.1789   22.9454 C   0  0  0  0  0  0  0  0  0  0  0  0
   20.3391   19.6654   23.7369 H   0  0  0  0  0  0  0  0  0  0  0  0
   20.6983   18.1050   22.9948 H   0  0  0  0  0  0  0  0  0  0  0  0
   22.4290   19.3982   23.2102 C   0  0  0  0  0  0  0  0  0  0  0  0
   22.6783   20.4674   23.1978 H   0  0  0  0  0  0  0  0  0  0  0  0
   22.7115   18.9958   24.1917 H   0  0  0  0  0  0  0  0  0  0  0  0
   23.0395   18.8948   22.4491 H   0  0  0  0  0  0  0  0  0  0  0  0
  1  2  1  0  0  0  0
  1  3  2  0  0  0  0
  1  4  1  0  0  0  0
  4  5  1  0  0  0  0
  4  6  2  0  0  0  0
  6  7  1  0  0  0  0
  6  8  1  0  0  0  0
  8  9  1  0  0  0  0
  8 10  1  0  0  0  0
  8 11  1  0  0  0  0
 11 12  1  0  0  0  0
 11 13  1  0  0  0  0
 11 14  1  0  0  0  0
 14 15  1  0  0  0  0
 14 16  1  0  0  0  0
 14 17  1  0  0  0  0
M  END
> <VConfSearch Rank>
210

> <Conf_Id>
1

> <Delta U+W>
0.030

> <U+W>
-53.378

> <U>
9.048

> <W>
-62.426

> <W(PB)>
-64.506

> <W(SA)>
2.080

> <Valence>
2.652

> <Coulomb>
5.578

> <VdW>
0.818

> <VdW6>
-4.535

> <VdW12>
5.352

> <Bond>
0.063

> <Angle>
2.579

> <Pdih>
0.010

> <Idih>
0.000

> <Tether>
0.000

$$$$
VeraChem MOL file


 17 16  0  0  0  0  0  0  0  0999 V2000     
   21.8321   19.4429   19.5850 C   0  0  0  0  0  0  0  0  0  0  0  0
   21.9233   20.6558   19.5530 O   0  5  0  0  0  0  0  0  0  0  0  0
   22.5781   18.7086   18.9669 O   0  0  0  0  0  0  0  0  0  0  0  0
   20.7669   18.8070   20.4066 C   0  0  0  0  0  0  0  0  0  0  0  0
   20.7402   17.7199   20.3904 H   0  0  0  0  0  0  0  0  0  0  0  0
   19.8699   19.4996   21.1447 C   0  0  0  0  0  0  0  0  0  0  0  0
   19.8897   20.5889   21.1708 H   0  0  0  0  0  0  0  0  0  0  0  0
   18.7908   18.8452   21.9816 C   0  0  0  0  0  0  0  0  0  0  0  0
   18.3624   17.9963   21.4318 H   0  0  0  0  0  0  0  0  0  0  0  0
   17.9660   19.5517   22.1451 H   0  0  0  0  0  0  0  0  0  0  0  0
   19.3235   18.3492   23.3439 C   0  0  0  0  0  0  0  0  0  0  0  0
   18.5285   17.7933   23.8596 H   0  0  0  0  0  0  0  0  0  0  0  0
   20.1483   17.6411   23.1835 H   0  0  0  0  0  0  0  0  0  0  0  0
   19.7995   19.5053   24.2492 C   0  0  0  0  0  0  0  0  0  0  0  0
   18.9868   20.2199   24.4336 H   0  0  0  0  0  0  0  0  0  0  0  0
   20.1394   19.1207   25.2195 H   0  0  0  0  0  0  0  0  0  0  0  0
   20.6363   20.0485   23.7910 H   0  0  0  0  0  0  0  0  0  0  0  0
  1  2  1  0  0  0  0
  1  3  2  0  0  0  0
  1  4  1  0  0  0  0
  4  5  1  0  0  0  0
  4  6  2  0  0  0  0
  6  7  1  0  0  0  0
  6  8  1  0  0  0  0
  8  9  1  0  0  0  0
  8 10  1  0  0  0  0
  8 11  1  0  0  0  0
 11 12  1  0  0  0  0
 11 13  1  0  0  0  0
 11 14  1  0  0  0  0
 14 15  1  0  0  0  0
 14 16  1  0  0  0  0
 14 17  1  0  0  0  0
M  END
> <VConfSearch Rank>
211

> <Conf_Id>
3

> <Delta U+W>
0.531

> <U+W>
-52.878

> <U>
10.067

> <W>
-62.945

> <W(PB)>
-64.982

> <W(SA)>
2.037

> <Valence>
2.779

> <Coulomb>
6.474

> <VdW>
0.815

> <VdW6>
-5.088

> <VdW12>
5.902

> <Bond>
0.078

> <Angle>
2.651

> <Pdih>
0.050

> <Idih>
0.000

> <Tether>
0.000

$$$$
VeraChem MOL file


 17 16  0  0  0  0  0  0  0  0999 V2000     
   22.4225   20.6284   21.1820 C   0  0  0  0  0  0  0  0  0  0  0  0
   23.1874   20.3985   20.2656 O   0  5  0  0  0  0  0  0  0  0  0  0
   22.7192   21.3325   22.1289 O   0  0  0  0  0  0  0  0  0  0  0  0
   21.0692   20.0131   21.1187 C   0  0  0  0  0  0  0  0  0  0  0  0
   20.8697   19.3957   20.2458 H   0  0  0  0  0  0  0  0  0  0  0  0
   20.1199   20.1810   22.0674 C   0  0  0  0  0  0  0  0  0  0  0  0
   20.3127   20.7949   22.9469 H   0  0  0  0  0  0  0  0  0  0  0  0
   18.7440   19.5511   22.0014 C   0  0  0  0  0  0  0  0  0  0  0  0
   18.5206   19.2169   20.9791 H   0  0  0  0  0  0  0  0  0  0  0  0
   17.9898   20.3110   22.2458 H   0  0  0  0  0  0  0  0  0  0  0  0
   18.5948   18.3650   22.9792 C   0  0  0  0  0  0  0  0  0  0  0  0
   18.8207   18.6978   24.0018 H   0  0  0  0  0  0  0  0  0  0  0  0
   17.5478   18.0319   22.9817 H   0  0  0  0  0  0  0  0  0  0  0  0
   19.5012   17.1718   22.6082 C   0  0  0  0  0  0  0  0  0  0  0  0
   20.5621   17.4497   22.6578 H   0  0  0  0  0  0  0  0  0  0  0  0
   19.3402   16.3349   23.3000 H   0  0  0  0  0  0  0  0  0  0  0  0
   19.2871   16.8175   21.5915 H   0  0  0  0  0  0  0  0  0  0  0  0
  1  2  1  0  0  0  0
  1  3  2  0  0  0  0
  1  4  1  0  0  0  0
  4  5  1  0  0  0  0
  4  6  2  0  0  0  0
  6  7  1  0  0  0  0
  6  8  1  0  0  0  0
  8  9  1  0  0  0  0
  8 10  1  0  0  0  0
  8 11  1  0  0  0  0
 11 12  1  0  0  0  0
 11 13  1  0  0  0  0
 11 14  1  0  0  0  0
 14 15  1  0  0  0  0
 14 16  1  0  0  0  0
 14 17  1  0  0  0  0
M  END
> <VConfSearch Rank>
212

> <Conf_Id>
45

> <Delta U+W>
0.562

> <U+W>
-52.846

> <U>
10.243

> <W>
-63.089

> <W(PB)>
-65.116

> <W(SA)>
2.026

> <Valence>
2.822

> <Coulomb>
6.637

> <VdW>
0.785

> <VdW6>
-5.216

> <VdW12>
6.001

> <Bond>
0.080

> <Angle>
2.678

> <Pdih>
0.064

> <Idih>
0.000

> <Tether>
0.000

$$$$
VeraChem MOL file


 17 16  0  0  0  0  0  0  0  0999 V2000     
   22.1741   20.2728   19.6141 C   0  0  0  0  0  0  0  0  0  0  0  0
   22.1984   21.3488   19.0490 O   0  5  0  0  0  0  0  0  0  0  0  0
   22.8432   19.3224   19.2544 O   0  0  0  0  0  0  0  0  0  0  0  0
   21.2803   20.1370   20.7960 C   0  0  0  0  0  0  0  0  0  0  0  0
   20.7103   21.0236   21.0643 H   0  0  0  0  0  0  0  0  0  0  0  0
   21.1528   19.0005   21.5180 C   0  0  0  0  0  0  0  0  0  0  0  0
   21.7174   18.1058   21.2565 H   0  0  0  0  0  0  0  0  0  0  0  0
   20.2398   18.8702   22.7174 C   0  0  0  0  0  0  0  0  0  0  0  0
   20.2574   19.7979   23.3054 H   0  0  0  0  0  0  0  0  0  0  0  0
   20.6112   18.0748   23.3776 H   0  0  0  0  0  0  0  0  0  0  0  0
   18.7923   18.5522   22.2899 C   0  0  0  0  0  0  0  0  0  0  0  0
   18.4178   19.3493   21.6326 H   0  0  0  0  0  0  0  0  0  0  0  0
   18.7771   17.6229   21.7037 H   0  0  0  0  0  0  0  0  0  0  0  0
   17.8572   18.4084   23.5074 C   0  0  0  0  0  0  0  0  0  0  0  0
   18.1913   17.5958   24.1658 H   0  0  0  0  0  0  0  0  0  0  0  0
   17.8304   19.3361   24.0940 H   0  0  0  0  0  0  0  0  0  0  0  0
   16.8328   18.1826   23.1836 H   0  0  0  0  0  0  0  0  0  0  0  0
  1  2  1  0  0  0  0
  1  3  2  0  0  0  0
  1  4  1  0  0  0  0
  4  5  1  0  0  0  0
  4  6  2  0  0  0  0
  6  7  1  0  0  0  0
  6  8  1  0  0  0  0
  8  9  1  0  0  0  0
  8 10  1  0  0  0  0
  8 11  1  0  0  0  0
 11 12  1  0  0  0  0
 11 13  1  0  0  0  0
 11 14  1  0  0  0  0
 14 15  1  0  0  0  0
 14 16  1  0  0  0  0
 14 17  1  0  0  0  0
M  END
> <VConfSearch Rank>
213

> <Conf_Id>
36

> <Delta U+W>
0.000

> <U+W>
-53.409

> <U>
9.048

> <W>
-62.457

> <W(PB)>
-64.540

> <W(SA)>
2.084

> <Valence>
2.652

> <Coulomb>
5.578

> <VdW>
0.818

> <VdW6>
-4.534

> <VdW12>
5.352

> <Bond>
0.063

> <Angle>
2.579

> <Pdih>
0.010

> <Idih>
0.000

> <Tether>
0.000

$$$$
VeraChem MOL file


 17 16  0  0  0  0  0  0  0  0999 V2000     
   21.7250   19.4341   19.0267 C   0  0  0  0  0  0  0  0  0  0  0  0
   21.9959   20.6150   18.9148 O   0  5  0  0  0  0  0  0  0  0  0  0
   21.8820   18.6327   18.1263 O   0  0  0  0  0  0  0  0  0  0  0  0
   21.1775   18.9245   20.3131 C   0  0  0  0  0  0  0  0  0  0  0  0
   20.9569   17.8600   20.3465 H   0  0  0  0  0  0  0  0  0  0  0  0
   20.9508   19.7017   21.3964 C   0  0  0  0  0  0  0  0  0  0  0  0
   21.1662   20.7699   21.3732 H   0  0  0  0  0  0  0  0  0  0  0  0
   20.3920   19.1758   22.7004 C   0  0  0  0  0  0  0  0  0  0  0  0
   20.7007   19.8330   23.5245 H   0  0  0  0  0  0  0  0  0  0  0  0
   20.8129   18.1844   22.9167 H   0  0  0  0  0  0  0  0  0  0  0  0
   18.8526   19.0897   22.6579 C   0  0  0  0  0  0  0  0  0  0  0  0
   18.4338   20.0828   22.4436 H   0  0  0  0  0  0  0  0  0  0  0  0
   18.5420   18.4293   21.8364 H   0  0  0  0  0  0  0  0  0  0  0  0
   18.2745   18.5632   23.9869 C   0  0  0  0  0  0  0  0  0  0  0  0
   18.5438   19.2234   24.8217 H   0  0  0  0  0  0  0  0  0  0  0  0
   17.1791   18.5089   23.9376 H   0  0  0  0  0  0  0  0  0  0  0  0
   18.6539   17.5571   24.2091 H   0  0  0  0  0  0  0  0  0  0  0  0
  1  2  1  0  0  0  0
  1  3  2  0  0  0  0
  1  4  1  0  0  0  0
  4  5  1  0  0  0  0
  4  6  2  0  0  0  0
  6  7  1  0  0  0  0
  6  8  1  0  0  0  0
  8  9  1  0  0  0  0
  8 10  1  0  0  0  0
  8 11  1  0  0  0  0
 11 12  1  0  0  0  0
 11 13  1  0  0  0  0
 11 14  1  0  0  0  0
 14 15  1  0  0  0  0
 14 16  1  0  0  0  0
 14 17  1  0  0  0  0
M  END
> <VConfSearch Rank>
214

> <Conf_Id>
1

> <Delta U+W>
0.030

> <U+W>
-53.378

> <U>
9.048

> <W>
-62.426

> <W(PB)>
-64.506

> <W(SA)>
2.080

> <Valence>
2.652

> <Coulomb>
5.578

> <VdW>
0.818

> <VdW6>
-4.535

> <VdW12>
5.352

> <Bond>
0.063

> <Angle>
2.579

> <Pdih>
0.010

> <Idih>
0.000

> <Tether>
0.000

$$$$
VeraChem MOL file


 17 16  0  0  0  0  0  0  0  0999 V2000     
   20.1009   18.5145   19.0231 C   0  0  0  0  0  0  0  0  0  0  0  0
   20.3068   19.6342   18.5938 O   0  5  0  0  0  0  0  0  0  0  0  0
   20.2542   17.5122   18.3525 O   0  0  0  0  0  0  0  0  0  0  0  0
   19.6372   18.3386   20.4260 C   0  0  0  0  0  0  0  0  0  0  0  0
   19.4711   17.3126   20.7459 H   0  0  0  0  0  0  0  0  0  0  0  0
   19.4262   19.3625   21.2840 C   0  0  0  0  0  0  0  0  0  0  0  0
   19.5927   20.3942   20.9749 H   0  0  0  0  0  0  0  0  0  0  0  0
   18.9579   19.1755   22.7118 C   0  0  0  0  0  0  0  0  0  0  0  0
   18.1891   18.3918   22.7476 H   0  0  0  0  0  0  0  0  0  0  0  0
   18.4748   20.0948   23.0692 H   0  0  0  0  0  0  0  0  0  0  0  0
   20.1130   18.7954   23.6641 C   0  0  0  0  0  0  0  0  0  0  0  0
   19.7004   18.5703   24.6572 H   0  0  0  0  0  0  0  0  0  0  0  0
   20.5976   17.8750   23.3097 H   0  0  0  0  0  0  0  0  0  0  0  0
   21.1638   19.9182   23.7970 C   0  0  0  0  0  0  0  0  0  0  0  0
   20.7036   20.8455   24.1623 H   0  0  0  0  0  0  0  0  0  0  0  0
   21.9507   19.6284   24.5053 H   0  0  0  0  0  0  0  0  0  0  0  0
   21.6416   20.1298   22.8315 H   0  0  0  0  0  0  0  0  0  0  0  0
  1  2  1  0  0  0  0
  1  3  2  0  0  0  0
  1  4  1  0  0  0  0
  4  5  1  0  0  0  0
  4  6  2  0  0  0  0
  6  7  1  0  0  0  0
  6  8  1  0  0  0  0
  8  9  1  0  0  0  0
  8 10  1  0  0  0  0
  8 11  1  0  0  0  0
 11 12  1  0  0  0  0
 11 13  1  0  0  0  0
 11 14  1  0  0  0  0
 14 15  1  0  0  0  0
 14 16  1  0  0  0  0
 14 17  1  0  0  0  0
M  END
> <VConfSearch Rank>
215

> <Conf_Id>
3

> <Delta U+W>
0.531

> <U+W>
-52.878

> <U>
10.067

> <W>
-62.945

> <W(PB)>
-64.982

> <W(SA)>
2.037

> <Valence>
2.779

> <Coulomb>
6.474

> <VdW>
0.815

> <VdW6>
-5.088

> <VdW12>
5.902

> <Bond>
0.078

> <Angle>
2.651

> <Pdih>
0.050

> <Idih>
0.000

> <Tether>
0.000

$$$$
VeraChem MOL file


 17 16  0  0  0  0  0  0  0  0999 V2000     
   17.9959   16.9594   22.8598 C   0  0  0  0  0  0  0  0  0  0  0  0
   17.1835   16.3682   22.1755 O   0  5  0  0  0  0  0  0  0  0  0  0
   17.9058   17.0396   24.0706 O   0  0  0  0  0  0  0  0  0  0  0  0
   19.1432   17.6021   22.1635 C   0  0  0  0  0  0  0  0  0  0  0  0
   19.1628   17.4921   21.0818 H   0  0  0  0  0  0  0  0  0  0  0  0
   20.1182   18.2928   22.7973 C   0  0  0  0  0  0  0  0  0  0  0  0
   20.1042   18.4110   23.8805 H   0  0  0  0  0  0  0  0  0  0  0  0
   21.2835   18.9483   22.0854 C   0  0  0  0  0  0  0  0  0  0  0  0
   21.3971   18.5390   21.0724 H   0  0  0  0  0  0  0  0  0  0  0  0
   22.2121   18.7050   22.6189 H   0  0  0  0  0  0  0  0  0  0  0  0
   21.1363   20.4839   22.0112 C   0  0  0  0  0  0  0  0  0  0  0  0
   21.0199   20.8939   23.0240 H   0  0  0  0  0  0  0  0  0  0  0  0
   22.0616   20.9134   21.6032 H   0  0  0  0  0  0  0  0  0  0  0  0
   19.9468   20.9246   21.1315 C   0  0  0  0  0  0  0  0  0  0  0  0
   18.9947   20.5672   21.5448 H   0  0  0  0  0  0  0  0  0  0  0  0
   19.8969   22.0194   21.0702 H   0  0  0  0  0  0  0  0  0  0  0  0
   20.0464   20.5319   20.1113 H   0  0  0  0  0  0  0  0  0  0  0  0
  1  2  1  0  0  0  0
  1  3  2  0  0  0  0
  1  4  1  0  0  0  0
  4  5  1  0  0  0  0
  4  6  2  0  0  0  0
  6  7  1  0  0  0  0
  6  8  1  0  0  0  0
  8  9  1  0  0  0  0
  8 10  1  0  0  0  0
  8 11  1  0  0  0  0
 11 12  1  0  0  0  0
 11 13  1  0  0  0  0
 11 14  1  0  0  0  0
 14 15  1  0  0  0  0
 14 16  1  0  0  0  0
 14 17  1  0  0  0  0
M  END
> <VConfSearch Rank>
216

> <Conf_Id>
45

> <Delta U+W>
0.562

> <U+W>
-52.846

> <U>
10.243

> <W>
-63.089

> <W(PB)>
-65.116

> <W(SA)>
2.026

> <Valence>
2.822

> <Coulomb>
6.637

> <VdW>
0.785

> <VdW6>
-5.216

> <VdW12>
6.001

> <Bond>
0.080

> <Angle>
2.678

> <Pdih>
0.064

> <Idih>
0.000

> <Tether>
0.000

$$$$
VeraChem MOL file


 17 16  0  0  0  0  0  0  0  0999 V2000     
   22.4564   21.2865   21.1345 C   0  0  0  0  0  0  0  0  0  0  0  0
   23.5565   21.0657   20.6670 O   0  5  0  0  0  0  0  0  0  0  0  0
   22.1472   22.3594   21.6181 O   0  0  0  0  0  0  0  0  0  0  0  0
   21.4607   20.1812   21.1012 C   0  0  0  0  0  0  0  0  0  0  0  0
   21.8010   19.2492   20.6557 H   0  0  0  0  0  0  0  0  0  0  0  0
   20.2023   20.2855   21.5855 C   0  0  0  0  0  0  0  0  0  0  0  0
   19.8518   21.2138   22.0362 H   0  0  0  0  0  0  0  0  0  0  0  0
   19.1965   19.1557   21.5497 C   0  0  0  0  0  0  0  0  0  0  0  0
   19.2899   18.5994   20.6071 H   0  0  0  0  0  0  0  0  0  0  0  0
   18.1789   19.5685   21.5694 H   0  0  0  0  0  0  0  0  0  0  0  0
   19.3872   18.1956   22.7418 C   0  0  0  0  0  0  0  0  0  0  0  0
   20.4037   17.7785   22.7211 H   0  0  0  0  0  0  0  0  0  0  0  0
   19.2913   18.7539   23.6834 H   0  0  0  0  0  0  0  0  0  0  0  0
   18.3596   17.0463   22.7177 C   0  0  0  0  0  0  0  0  0  0  0  0
   17.3341   17.4349   22.7696 H   0  0  0  0  0  0  0  0  0  0  0  0
   18.4555   16.4528   21.7990 H   0  0  0  0  0  0  0  0  0  0  0  0
   18.5110   16.3743   23.5725 H   0  0  0  0  0  0  0  0  0  0  0  0
  1  2  1  0  0  0  0
  1  3  2  0  0  0  0
  1  4  1  0  0  0  0
  4  5  1  0  0  0  0
  4  6  2  0  0  0  0
  6  7  1  0  0  0  0
  6  8  1  0  0  0  0
  8  9  1  0  0  0  0
  8 10  1  0  0  0  0
  8 11  1  0  0  0  0
 11 12  1  0  0  0  0
 11 13  1  0  0  0  0
 11 14  1  0  0  0  0
 14 15  1  0  0  0  0
 14 16  1  0  0  0  0
 14 17  1  0  0  0  0
M  END
> <VConfSearch Rank>
217

> <Conf_Id>
36

> <Delta U+W>
0.000

> <U+W>
-53.409

> <U>
9.048

> <W>
-62.457

> <W(PB)>
-64.540

> <W(SA)>
2.084

> <Valence>
2.652

> <Coulomb>
5.578

> <VdW>
0.818

> <VdW6>
-4.534

> <VdW12>
5.352

> <Bond>
0.063

> <Angle>
2.579

> <Pdih>
0.010

> <Idih>
0.000

> <Tether>
0.000

$$$$
VeraChem MOL file


 17 16  0  0  0  0  0  0  0  0999 V2000     
   19.8184   17.7711   25.0106 C   0  0  0  0  0  0  0  0  0  0  0  0
   19.0550   16.8261   24.9429 O   0  5  0  0  0  0  0  0  0  0  0  0
   20.2190   18.2217   26.0661 O   0  0  0  0  0  0  0  0  0  0  0  0
   20.2979   18.4195   23.7600 C   0  0  0  0  0  0  0  0  0  0  0  0
   20.9780   19.2581   23.8909 H   0  0  0  0  0  0  0  0  0  0  0  0
   19.9341   18.0244   22.5188 C   0  0  0  0  0  0  0  0  0  0  0  0
   19.2515   17.1868   22.3763 H   0  0  0  0  0  0  0  0  0  0  0  0
   20.4249   18.6905   21.2521 C   0  0  0  0  0  0  0  0  0  0  0  0
   20.3774   17.9765   20.4189 H   0  0  0  0  0  0  0  0  0  0  0  0
   21.4807   18.9735   21.3614 H   0  0  0  0  0  0  0  0  0  0  0  0
   19.5842   19.9380   20.9112 C   0  0  0  0  0  0  0  0  0  0  0  0
   18.5290   19.6520   20.8002 H   0  0  0  0  0  0  0  0  0  0  0  0
   19.6339   20.6553   21.7422 H   0  0  0  0  0  0  0  0  0  0  0  0
   20.0724   20.6175   19.6161 C   0  0  0  0  0  0  0  0  0  0  0  0
   20.0032   19.9311   18.7620 H   0  0  0  0  0  0  0  0  0  0  0  0
   19.4628   21.5021   19.3900 H   0  0  0  0  0  0  0  0  0  0  0  0
   21.1171   20.9414   19.7121 H   0  0  0  0  0  0  0  0  0  0  0  0
  1  2  1  0  0  0  0
  1  3  2  0  0  0  0
  1  4  1  0  0  0  0
  4  5  1  0  0  0  0
  4  6  2  0  0  0  0
  6  7  1  0  0  0  0
  6  8  1  0  0  0  0
  8  9  1  0  0  0  0
  8 10  1  0  0  0  0
  8 11  1  0  0  0  0
 11 12  1  0  0  0  0
 11 13  1  0  0  0  0
 11 14  1  0  0  0  0
 14 15  1  0  0  0  0
 14 16  1  0  0  0  0
 14 17  1  0  0  0  0
M  END
> <VConfSearch Rank>
218

> <Conf_Id>
1

> <Delta U+W>
0.030

> <U+W>
-53.378

> <U>
9.048

> <W>
-62.426

> <W(PB)>
-64.506

> <W(SA)>
2.080

> <Valence>
2.652

> <Coulomb>
5.578

> <VdW>
0.818

> <VdW6>
-4.535

> <VdW12>
5.352

> <Bond>
0.063

> <Angle>
2.579

> <Pdih>
0.010

> <Idih>
0.000

> <Tether>
0.000

$$$$
VeraChem MOL file


 17 16  0  0  0  0  0  0  0  0999 V2000     
   19.8000   21.7058   23.6626 C   0  0  0  0  0  0  0  0  0  0  0  0
   18.9548   21.3908   24.4792 O   0  5  0  0  0  0  0  0  0  0  0  0
   20.5082   22.6856   23.7904 O   0  0  0  0  0  0  0  0  0  0  0  0
   19.9917   20.8734   22.4443 C   0  0  0  0  0  0  0  0  0  0  0  0
   20.7624   21.2109   21.7552 H   0  0  0  0  0  0  0  0  0  0  0  0
   19.2768   19.7578   22.1736 C   0  0  0  0  0  0  0  0  0  0  0  0
   18.5046   19.4087   22.8588 H   0  0  0  0  0  0  0  0  0  0  0  0
   19.4802   18.9133   20.9333 C   0  0  0  0  0  0  0  0  0  0  0  0
   19.6417   19.5667   20.0653 H   0  0  0  0  0  0  0  0  0  0  0  0
   18.5685   18.3395   20.7191 H   0  0  0  0  0  0  0  0  0  0  0  0
   20.6778   17.9476   21.0698 C   0  0  0  0  0  0  0  0  0  0  0  0
   20.8416   17.4404   20.1090 H   0  0  0  0  0  0  0  0  0  0  0  0
   21.5919   18.5189   21.2829 H   0  0  0  0  0  0  0  0  0  0  0  0
   20.4597   16.8866   22.1695 C   0  0  0  0  0  0  0  0  0  0  0  0
   19.5571   16.2943   21.9702 H   0  0  0  0  0  0  0  0  0  0  0  0
   21.3134   16.1981   22.2163 H   0  0  0  0  0  0  0  0  0  0  0  0
   20.3512   17.3554   23.1563 H   0  0  0  0  0  0  0  0  0  0  0  0
  1  2  1  0  0  0  0
  1  3  2  0  0  0  0
  1  4  1  0  0  0  0
  4  5  1  0  0  0  0
  4  6  2  0  0  0  0
  6  7  1  0  0  0  0
  6  8  1  0  0  0  0
  8  9  1  0  0  0  0
  8 10  1  0  0  0  0
  8 11  1  0  0  0  0
 11 12  1  0  0  0  0
 11 13  1  0  0  0  0
 11 14  1  0  0  0  0
 14 15  1  0  0  0  0
 14 16  1  0  0  0  0
 14 17  1  0  0  0  0
M  END
> <VConfSearch Rank>
219

> <Conf_Id>
3

> <Delta U+W>
0.531

> <U+W>
-52.878

> <U>
10.067

> <W>
-62.945

> <W(PB)>
-64.982

> <W(SA)>
2.037

> <Valence>
2.779

> <Coulomb>
6.474

> <VdW>
0.815

> <VdW6>
-5.088

> <VdW12>
5.902

> <Bond>
0.078

> <Angle>
2.651

> <Pdih>
0.050

> <Idih>
0.000

> <Tether>
0.000

$$$$
VeraChem MOL file


 17 16  0  0  0  0  0  0  0  0999 V2000     
   20.7376   16.3410   21.1120 C   0  0  0  0  0  0  0  0  0  0  0  0
   20.9045   15.3174   21.7462 O   0  5  0  0  0  0  0  0  0  0  0  0
   21.1995   16.5112   19.9993 O   0  0  0  0  0  0  0  0  0  0  0  0
   19.9266   17.4166   21.7441 C   0  0  0  0  0  0  0  0  0  0  0  0
   19.5441   17.1994   22.7386 H   0  0  0  0  0  0  0  0  0  0  0  0
   19.6628   18.6058   21.1559 C   0  0  0  0  0  0  0  0  0  0  0  0
   20.0453   18.8331   20.1611 H   0  0  0  0  0  0  0  0  0  0  0  0
   18.8392   19.6999   21.8031 C   0  0  0  0  0  0  0  0  0  0  0  0
   18.2491   19.2972   22.6375 H   0  0  0  0  0  0  0  0  0  0  0  0
   18.1137   20.0820   21.0725 H   0  0  0  0  0  0  0  0  0  0  0  0
   19.7115   20.8724   22.3028 C   0  0  0  0  0  0  0  0  0  0  0  0
   20.3041   21.2742   21.4692 H   0  0  0  0  0  0  0  0  0  0  0  0
   19.0569   21.6864   22.6434 H   0  0  0  0  0  0  0  0  0  0  0  0
   20.6494   20.4642   23.4588 C   0  0  0  0  0  0  0  0  0  0  0  0
   21.3637   19.6953   23.1368 H   0  0  0  0  0  0  0  0  0  0  0  0
   21.2241   21.3295   23.8136 H   0  0  0  0  0  0  0  0  0  0  0  0
   20.0770   20.0663   24.3069 H   0  0  0  0  0  0  0  0  0  0  0  0
  1  2  1  0  0  0  0
  1  3  2  0  0  0  0
  1  4  1  0  0  0  0
  4  5  1  0  0  0  0
  4  6  2  0  0  0  0
  6  7  1  0  0  0  0
  6  8  1  0  0  0  0
  8  9  1  0  0  0  0
  8 10  1  0  0  0  0
  8 11  1  0  0  0  0
 11 12  1  0  0  0  0
 11 13  1  0  0  0  0
 11 14  1  0  0  0  0
 14 15  1  0  0  0  0
 14 16  1  0  0  0  0
 14 17  1  0  0  0  0
M  END
> <VConfSearch Rank>
220

> <Conf_Id>
45

> <Delta U+W>
0.562

> <U+W>
-52.846

> <U>
10.243

> <W>
-63.089

> <W(PB)>
-65.116

> <W(SA)>
2.026

> <Valence>
2.822

> <Coulomb>
6.637

> <VdW>
0.785

> <VdW6>
-5.216

> <VdW12>
6.001

> <Bond>
0.080

> <Angle>
2.678

> <Pdih>
0.064

> <Idih>
0.000

> <Tether>
0.000

$$$$
VeraChem MOL file


 17 16  0  0  0  0  0  0  0  0999 V2000     
   20.7731   16.2527   20.3132 C   0  0  0  0  0  0  0  0  0  0  0  0
   21.3979   15.2913   20.7171 O   0  5  0  0  0  0  0  0  0  0  0  0
   20.5091   16.4225   19.1377 O   0  0  0  0  0  0  0  0  0  0  0  0
   20.3211   17.2511   21.3196 C   0  0  0  0  0  0  0  0  0  0  0  0
   20.5899   17.0394   22.3520 H   0  0  0  0  0  0  0  0  0  0  0  0
   19.6201   18.3663   21.0129 C   0  0  0  0  0  0  0  0  0  0  0  0
   19.3475   18.5893   19.9815 H   0  0  0  0  0  0  0  0  0  0  0  0
   19.1660   19.3778   22.0424 C   0  0  0  0  0  0  0  0  0  0  0  0
   18.8481   18.8634   22.9595 H   0  0  0  0  0  0  0  0  0  0  0  0
   18.2863   19.9167   21.6654 H   0  0  0  0  0  0  0  0  0  0  0  0
   20.2863   20.3854   22.3723 C   0  0  0  0  0  0  0  0  0  0  0  0
   21.1658   19.8481   22.7536 H   0  0  0  0  0  0  0  0  0  0  0  0
   20.6011   20.9000   21.4539 H   0  0  0  0  0  0  0  0  0  0  0  0
   19.8282   21.4257   23.4141 C   0  0  0  0  0  0  0  0  0  0  0  0
   18.9684   21.9997   23.0445 H   0  0  0  0  0  0  0  0  0  0  0  0
   19.5370   20.9386   24.3540 H   0  0  0  0  0  0  0  0  0  0  0  0
   20.6378   22.1332   23.6360 H   0  0  0  0  0  0  0  0  0  0  0  0
  1  2  1  0  0  0  0
  1  3  2  0  0  0  0
  1  4  1  0  0  0  0
  4  5  1  0  0  0  0
  4  6  2  0  0  0  0
  6  7  1  0  0  0  0
  6  8  1  0  0  0  0
  8  9  1  0  0  0  0
  8 10  1  0  0  0  0
  8 11  1  0  0  0  0
 11 12  1  0  0  0  0
 11 13  1  0  0  0  0
 11 14  1  0  0  0  0
 14 15  1  0  0  0  0
 14 16  1  0  0  0  0
 14 17  1  0  0  0  0
M  END
> <VConfSearch Rank>
221

> <Conf_Id>
36

> <Delta U+W>
0.000

> <U+W>
-53.409

> <U>
9.048

> <W>
-62.457

> <W(PB)>
-64.540

> <W(SA)>
2.084

> <Valence>
2.652

> <Coulomb>
5.578

> <VdW>
0.818

> <VdW6>
-4.534

> <VdW12>
5.352

> <Bond>
0.063

> <Angle>
2.579

> <Pdih>
0.010

> <Idih>
0.000

> <Tether>
0.000

$$$$
VeraChem MOL file


 17 16  0  0  0  0  0  0  0  0999 V2000     
   17.7264   18.8030   24.3753 C   0  0  0  0  0  0  0  0  0  0  0  0
   17.1902   19.8893   24.4882 O   0  5  0  0  0  0  0  0  0  0  0  0
   17.5688   17.9027   25.1767 O   0  0  0  0  0  0  0  0  0  0  0  0
   18.6177   18.5406   23.2130 C   0  0  0  0  0  0  0  0  0  0  0  0
   19.0650   17.5501   23.1720 H   0  0  0  0  0  0  0  0  0  0  0  0
   18.8838   19.4490   22.2471 C   0  0  0  0  0  0  0  0  0  0  0  0
   18.4428   20.4451   22.2795 H   0  0  0  0  0  0  0  0  0  0  0  0
   19.7930   19.1747   21.0692 C   0  0  0  0  0  0  0  0  0  0  0  0
   19.5214   19.8338   20.2336 H   0  0  0  0  0  0  0  0  0  0  0  0
   19.6482   18.1450   20.7148 H   0  0  0  0  0  0  0  0  0  0  0  0
   21.2741   19.3943   21.4394 C   0  0  0  0  0  0  0  0  0  0  0  0
   21.4168   20.4255   21.7915 H   0  0  0  0  0  0  0  0  0  0  0  0
   21.5486   18.7326   22.2727 H   0  0  0  0  0  0  0  0  0  0  0  0
   22.2068   19.1257   20.2414 C   0  0  0  0  0  0  0  0  0  0  0  0
   21.9743   19.7968   19.4041 H   0  0  0  0  0  0  0  0  0  0  0  0
   23.2553   19.2869   20.5237 H   0  0  0  0  0  0  0  0  0  0  0  0
   22.1060   18.0906   19.8894 H   0  0  0  0  0  0  0  0  0  0  0  0
  1  2  1  0  0  0  0
  1  3  2  0  0  0  0
  1  4  1  0  0  0  0
  4  5  1  0  0  0  0
  4  6  2  0  0  0  0
  6  7  1  0  0  0  0
  6  8  1  0  0  0  0
  8  9  1  0  0  0  0
  8 10  1  0  0  0  0
  8 11  1  0  0  0  0
 11 12  1  0  0  0  0
 11 13  1  0  0  0  0
 11 14  1  0  0  0  0
 14 15  1  0  0  0  0
 14 16  1  0  0  0  0
 14 17  1  0  0  0  0
M  END
> <VConfSearch Rank>
222

> <Conf_Id>
1

> <Delta U+W>
0.030

> <U+W>
-53.378

> <U>
9.048

> <W>
-62.426

> <W(PB)>
-64.506

> <W(SA)>
2.080

> <Valence>
2.652

> <Coulomb>
5.578

> <VdW>
0.818

> <VdW6>
-4.535

> <VdW12>
5.352

> <Bond>
0.063

> <Angle>
2.579

> <Pdih>
0.010

> <Idih>
0.000

> <Tether>
0.000

$$$$
VeraChem MOL file


 17 16  0  0  0  0  0  0  0  0999 V2000     
   18.6233   21.8319   21.8791 C   0  0  0  0  0  0  0  0  0  0  0  0
   18.7287   22.0571   20.6880 O   0  5  0  0  0  0  0  0  0  0  0  0
   17.8601   22.4434   22.6012 O   0  0  0  0  0  0  0  0  0  0  0  0
   19.4567   20.7688   22.5031 C   0  0  0  0  0  0  0  0  0  0  0  0
   19.3142   20.6193   23.5708 H   0  0  0  0  0  0  0  0  0  0  0  0
   20.3451   20.0104   21.8215 C   0  0  0  0  0  0  0  0  0  0  0  0
   20.4933   20.1493   20.7508 H   0  0  0  0  0  0  0  0  0  0  0  0
   21.1871   18.9274   22.4627 C   0  0  0  0  0  0  0  0  0  0  0  0
   21.5461   19.2714   23.4421 H   0  0  0  0  0  0  0  0  0  0  0  0
   22.0836   18.7434   21.8554 H   0  0  0  0  0  0  0  0  0  0  0  0
   20.4069   17.6069   22.6448 C   0  0  0  0  0  0  0  0  0  0  0  0
   21.0291   16.8966   23.2065 H   0  0  0  0  0  0  0  0  0  0  0  0
   19.5099   17.7876   23.2533 H   0  0  0  0  0  0  0  0  0  0  0  0
   20.0023   16.9686   21.2989 C   0  0  0  0  0  0  0  0  0  0  0  0
   20.8853   16.7673   20.6786 H   0  0  0  0  0  0  0  0  0  0  0  0
   19.4804   16.0172   21.4645 H   0  0  0  0  0  0  0  0  0  0  0  0
   19.3296   17.6274   20.7344 H   0  0  0  0  0  0  0  0  0  0  0  0
  1  2  1  0  0  0  0
  1  3  2  0  0  0  0
  1  4  1  0  0  0  0
  4  5  1  0  0  0  0
  4  6  2  0  0  0  0
  6  7  1  0  0  0  0
  6  8  1  0  0  0  0
  8  9  1  0  0  0  0
  8 10  1  0  0  0  0
  8 11  1  0  0  0  0
 11 12  1  0  0  0  0
 11 13  1  0  0  0  0
 11 14  1  0  0  0  0
 14 15  1  0  0  0  0
 14 16  1  0  0  0  0
 14 17  1  0  0  0  0
M  END
> <VConfSearch Rank>
223

> <Conf_Id>
3

> <Delta U+W>
0.531

> <U+W>
-52.878

> <U>
10.067

> <W>
-62.945

> <W(PB)>
-64.982

> <W(SA)>
2.037

> <Valence>
2.779

> <Coulomb>
6.474

> <VdW>
0.815

> <VdW6>
-5.088

> <VdW12>
5.902

> <Bond>
0.078

> <Angle>
2.651

> <Pdih>
0.050

> <Idih>
0.000

> <Tether>
0.000

$$$$
VeraChem MOL file


 17 16  0  0  0  0  0  0  0  0999 V2000     
   20.6528   22.0424   22.1045 C   0  0  0  0  0  0  0  0  0  0  0  0
   21.3732   22.6788   21.3603 O   0  5  0  0  0  0  0  0  0  0  0  0
   20.3522   22.4254   23.2196 O   0  0  0  0  0  0  0  0  0  0  0  0
   20.1258   20.7432   21.6062 C   0  0  0  0  0  0  0  0  0  0  0  0
   20.4332   20.4610   20.6019 H   0  0  0  0  0  0  0  0  0  0  0  0
   19.3175   19.9320   22.3260 C   0  0  0  0  0  0  0  0  0  0  0  0
   19.0076   20.2054   23.3344 H   0  0  0  0  0  0  0  0  0  0  0  0
   18.7847   18.6086   21.8170 C   0  0  0  0  0  0  0  0  0  0  0  0
   18.8783   18.5490   20.7241 H   0  0  0  0  0  0  0  0  0  0  0  0
   17.7102   18.5471   22.0351 H   0  0  0  0  0  0  0  0  0  0  0  0
   19.4972   17.4015   22.4653 C   0  0  0  0  0  0  0  0  0  0  0  0
   19.4063   17.4617   23.5588 H   0  0  0  0  0  0  0  0  0  0  0  0
   18.9880   16.4775   22.1586 H   0  0  0  0  0  0  0  0  0  0  0  0
   20.9869   17.3092   22.0713 C   0  0  0  0  0  0  0  0  0  0  0  0
   21.5439   18.1889   22.4192 H   0  0  0  0  0  0  0  0  0  0  0  0
   21.4500   16.4198   22.5178 H   0  0  0  0  0  0  0  0  0  0  0  0
   21.1012   17.2404   20.9817 H   0  0  0  0  0  0  0  0  0  0  0  0
  1  2  1  0  0  0  0
  1  3  2  0  0  0  0
  1  4  1  0  0  0  0
  4  5  1  0  0  0  0
  4  6  2  0  0  0  0
  6  7  1  0  0  0  0
  6  8  1  0  0  0  0
  8  9  1  0  0  0  0
  8 10  1  0  0  0  0
  8 11  1  0  0  0  0
 11 12  1  0  0  0  0
 11 13  1  0  0  0  0
 11 14  1  0  0  0  0
 14 15  1  0  0  0  0
 14 16  1  0  0  0  0
 14 17  1  0  0  0  0
M  END
> <VConfSearch Rank>
224

> <Conf_Id>
45

> <Delta U+W>
0.562

> <U+W>
-52.846

> <U>
10.243

> <W>
-63.089

> <W(PB)>
-65.116

> <W(SA)>
2.026

> <Valence>
2.822

> <Coulomb>
6.637

> <VdW>
0.785

> <VdW6>
-5.216

> <VdW12>
6.001

> <Bond>
0.080

> <Angle>
2.678

> <Pdih>
0.064

> <Idih>
0.000

> <Tether>
0.000

$$$$
VeraChem MOL file


 17 16  0  0  0  0  0  0  0  0999 V2000     
   22.1737   19.8025   24.3943 C   0  0  0  0  0  0  0  0  0  0  0  0
   23.1916   20.4662   24.3626 O   0  5  0  0  0  0  0  0  0  0  0  0
   21.8916   19.0696   25.3237 O   0  0  0  0  0  0  0  0  0  0  0  0
   21.2470   19.9090   23.2350 C   0  0  0  0  0  0  0  0  0  0  0  0
   21.5585   20.5812   22.4387 H   0  0  0  0  0  0  0  0  0  0  0  0
   20.0822   19.2289   23.1361 C   0  0  0  0  0  0  0  0  0  0  0  0
   19.7617   18.5510   23.9270 H   0  0  0  0  0  0  0  0  0  0  0  0
   19.1465   19.3413   21.9524 C   0  0  0  0  0  0  0  0  0  0  0  0
   19.1125   20.3805   21.5979 H   0  0  0  0  0  0  0  0  0  0  0  0
   18.1254   19.0843   22.2651 H   0  0  0  0  0  0  0  0  0  0  0  0
   19.5829   18.4125   20.8009 C   0  0  0  0  0  0  0  0  0  0  0  0
   20.6028   18.6712   20.4841 H   0  0  0  0  0  0  0  0  0  0  0  0
   19.6142   17.3735   21.1574 H   0  0  0  0  0  0  0  0  0  0  0  0
   18.6287   18.5142   19.5940 C   0  0  0  0  0  0  0  0  0  0  0  0
   17.6065   18.2298   19.8762 H   0  0  0  0  0  0  0  0  0  0  0  0
   18.6030   19.5382   19.1987 H   0  0  0  0  0  0  0  0  0  0  0  0
   18.9551   17.8471   18.7856 H   0  0  0  0  0  0  0  0  0  0  0  0
  1  2  1  0  0  0  0
  1  3  2  0  0  0  0
  1  4  1  0  0  0  0
  4  5  1  0  0  0  0
  4  6  2  0  0  0  0
  6  7  1  0  0  0  0
  6  8  1  0  0  0  0
  8  9  1  0  0  0  0
  8 10  1  0  0  0  0
  8 11  1  0  0  0  0
 11 12  1  0  0  0  0
 11 13  1  0  0  0  0
 11 14  1  0  0  0  0
 14 15  1  0  0  0  0
 14 16  1  0  0  0  0
 14 17  1  0  0  0  0
M  END
> <VConfSearch Rank>
225

> <Conf_Id>
36

> <Delta U+W>
0.000

> <U+W>
-53.409

> <U>
9.048

> <W>
-62.457

> <W(PB)>
-64.540

> <W(SA)>
2.084

> <Valence>
2.652

> <Coulomb>
5.578

> <VdW>
0.818

> <VdW6>
-4.534

> <VdW12>
5.352

> <Bond>
0.063

> <Angle>
2.579

> <Pdih>
0.010

> <Idih>
0.000

> <Tether>
0.000

$$$$
VeraChem MOL file


 17 16  0  0  0  0  0  0  0  0999 V2000     
   20.1448   15.9669   20.6543 C   0  0  0  0  0  0  0  0  0  0  0  0
   19.0719   15.4453   20.8934 O   0  5  0  0  0  0  0  0  0  0  0  0
   21.1022   15.3454   20.2360 O   0  0  0  0  0  0  0  0  0  0  0  0
   20.3166   17.4285   20.8741 C   0  0  0  0  0  0  0  0  0  0  0  0
   21.2996   17.8312   20.6407 H   0  0  0  0  0  0  0  0  0  0  0  0
   19.3393   18.2413   21.3358 C   0  0  0  0  0  0  0  0  0  0  0  0
   18.3514   17.8479   21.5748 H   0  0  0  0  0  0  0  0  0  0  0  0
   19.5229   19.7266   21.5583 C   0  0  0  0  0  0  0  0  0  0  0  0
   18.5490   20.2307   21.4975 H   0  0  0  0  0  0  0  0  0  0  0  0
   20.1454   20.1519   20.7594 H   0  0  0  0  0  0  0  0  0  0  0  0
   20.1679   20.0138   22.9296 C   0  0  0  0  0  0  0  0  0  0  0  0
   19.5424   19.5893   23.7271 H   0  0  0  0  0  0  0  0  0  0  0  0
   21.1444   19.5134   22.9906 H   0  0  0  0  0  0  0  0  0  0  0  0
   20.3500   21.5262   23.1681 C   0  0  0  0  0  0  0  0  0  0  0  0
   19.3838   22.0470   23.1438 H   0  0  0  0  0  0  0  0  0  0  0  0
   20.8099   21.7107   24.1477 H   0  0  0  0  0  0  0  0  0  0  0  0
   20.9980   21.9697   22.4007 H   0  0  0  0  0  0  0  0  0  0  0  0
  1  2  1  0  0  0  0
  1  3  2  0  0  0  0
  1  4  1  0  0  0  0
  4  5  1  0  0  0  0
  4  6  2  0  0  0  0
  6  7  1  0  0  0  0
  6  8  1  0  0  0  0
  8  9  1  0  0  0  0
  8 10  1  0  0  0  0
  8 11  1  0  0  0  0
 11 12  1  0  0  0  0
 11 13  1  0  0  0  0
 11 14  1  0  0  0  0
 14 15  1  0  0  0  0
 14 16  1  0  0  0  0
 14 17  1  0  0  0  0
M  END
> <VConfSearch Rank>
226

> <Conf_Id>
1

> <Delta U+W>
0.030

> <U+W>
-53.378

> <U>
9.048

> <W>
-62.426

> <W(PB)>
-64.506

> <W(SA)>
2.080

> <Valence>
2.652

> <Coulomb>
5.578

> <VdW>
0.818

> <VdW6>
-4.535

> <VdW12>
5.352

> <Bond>
0.063

> <Angle>
2.579

> <Pdih>
0.010

> <Idih>
0.000

> <Tether>
0.000

$$$$
VeraChem MOL file


 17 16  0  0  0  0  0  0  0  0999 V2000     
   20.6925   21.5757   23.7396 C   0  0  0  0  0  0  0  0  0  0  0  0
   19.6936   21.6494   24.4305 O   0  5  0  0  0  0  0  0  0  0  0  0
   21.7190   22.1736   23.9980 O   0  0  0  0  0  0  0  0  0  0  0  0
   20.6808   20.7261   22.5181 C   0  0  0  0  0  0  0  0  0  0  0  0
   21.6051   20.7053   21.9455 H   0  0  0  0  0  0  0  0  0  0  0  0
   19.6108   20.0060   22.1112 C   0  0  0  0  0  0  0  0  0  0  0  0
   18.6809   20.0169   22.6793 H   0  0  0  0  0  0  0  0  0  0  0  0
   19.6076   19.1403   20.8688 C   0  0  0  0  0  0  0  0  0  0  0  0
   20.1372   19.6582   20.0577 H   0  0  0  0  0  0  0  0  0  0  0  0
   18.5770   18.9954   20.5180 H   0  0  0  0  0  0  0  0  0  0  0  0
   20.2695   17.7656   21.1088 C   0  0  0  0  0  0  0  0  0  0  0  0
   20.3334   17.2261   20.1537 H   0  0  0  0  0  0  0  0  0  0  0  0
   21.3014   17.9073   21.4588 H   0  0  0  0  0  0  0  0  0  0  0  0
   19.4899   16.9030   22.1242 C   0  0  0  0  0  0  0  0  0  0  0  0
   18.4579   16.7376   21.7884 H   0  0  0  0  0  0  0  0  0  0  0  0
   19.9683   15.9225   22.2451 H   0  0  0  0  0  0  0  0  0  0  0  0
   19.4566   17.3849   23.1100 H   0  0  0  0  0  0  0  0  0  0  0  0
  1  2  1  0  0  0  0
  1  3  2  0  0  0  0
  1  4  1  0  0  0  0
  4  5  1  0  0  0  0
  4  6  2  0  0  0  0
  6  7  1  0  0  0  0
  6  8  1  0  0  0  0
  8  9  1  0  0  0  0
  8 10  1  0  0  0  0
  8 11  1  0  0  0  0
 11 12  1  0  0  0  0
 11 13  1  0  0  0  0
 11 14  1  0  0  0  0
 14 15  1  0  0  0  0
 14 16  1  0  0  0  0
 14 17  1  0  0  0  0
M  END
> <VConfSearch Rank>
227

> <Conf_Id>
3

> <Delta U+W>
0.531

> <U+W>
-52.878

> <U>
10.067

> <W>
-62.945

> <W(PB)>
-64.982

> <W(SA)>
2.037

> <Valence>
2.779

> <Coulomb>
6.474

> <VdW>
0.815

> <VdW6>
-5.088

> <VdW12>
5.902

> <Bond>
0.078

> <Angle>
2.651

> <Pdih>
0.050

> <Idih>
0.000

> <Tether>
0.000

$$$$
VeraChem MOL file


 17 16  0  0  0  0  0  0  0  0999 V2000     
   22.1512   17.4558   23.3764 C   0  0  0  0  0  0  0  0  0  0  0  0
   23.0631   17.8099   24.0981 O   0  5  0  0  0  0  0  0  0  0  0  0
   22.1659   16.4069   22.7600 O   0  0  0  0  0  0  0  0  0  0  0  0
   20.9754   18.3603   23.2607 C   0  0  0  0  0  0  0  0  0  0  0  0
   21.0270   19.2808   23.8375 H   0  0  0  0  0  0  0  0  0  0  0  0
   19.8931   18.0950   22.4939 C   0  0  0  0  0  0  0  0  0  0  0  0
   19.8349   17.1769   21.9099 H   0  0  0  0  0  0  0  0  0  0  0  0
   18.6988   19.0192   22.3760 C   0  0  0  0  0  0  0  0  0  0  0  0
   18.6888   19.7448   23.2006 H   0  0  0  0  0  0  0  0  0  0  0  0
   17.7779   18.4294   22.4772 H   0  0  0  0  0  0  0  0  0  0  0  0
   18.6681   19.7679   21.0256 C   0  0  0  0  0  0  0  0  0  0  0  0
   18.6807   19.0427   20.2000 H   0  0  0  0  0  0  0  0  0  0  0  0
   17.7219   20.3203   20.9434 H   0  0  0  0  0  0  0  0  0  0  0  0
   19.8430   20.7566   20.8677 C   0  0  0  0  0  0  0  0  0  0  0  0
   20.8069   20.2315   20.8801 H   0  0  0  0  0  0  0  0  0  0  0  0
   19.7670   21.2977   19.9157 H   0  0  0  0  0  0  0  0  0  0  0  0
   19.8454   21.4961   21.6790 H   0  0  0  0  0  0  0  0  0  0  0  0
  1  2  1  0  0  0  0
  1  3  2  0  0  0  0
  1  4  1  0  0  0  0
  4  5  1  0  0  0  0
  4  6  2  0  0  0  0
  6  7  1  0  0  0  0
  6  8  1  0  0  0  0
  8  9  1  0  0  0  0
  8 10  1  0  0  0  0
  8 11  1  0  0  0  0
 11 12  1  0  0  0  0
 11 13  1  0  0  0  0
 11 14  1  0  0  0  0
 14 15  1  0  0  0  0
 14 16  1  0  0  0  0
 14 17  1  0  0  0  0
M  END
> <VConfSearch Rank>
228

> <Conf_Id>
45

> <Delta U+W>
0.562

> <U+W>
-52.846

> <U>
10.243

> <W>
-63.089

> <W(PB)>
-65.116

> <W(SA)>
2.026

> <Valence>
2.822

> <Coulomb>
6.637

> <VdW>
0.785

> <VdW6>
-5.216

> <VdW12>
6.001

> <Bond>
0.080

> <Angle>
2.678

> <Pdih>
0.064

> <Idih>
0.000

> <Tether>
0.000

$$$$
VeraChem MOL file


 17 16  0  0  0  0  0  0  0  0999 V2000     
   16.6512   19.1199   22.3709 C   0  0  0  0  0  0  0  0  0  0  0  0
   15.9927   19.6714   23.2311 O   0  5  0  0  0  0  0  0  0  0  0  0
   16.1944   18.2644   21.6361 O   0  0  0  0  0  0  0  0  0  0  0  0
   18.0754   19.5268   22.2286 C   0  0  0  0  0  0  0  0  0  0  0  0
   18.4201   20.2960   22.9160 H   0  0  0  0  0  0  0  0  0  0  0  0
   18.9231   18.9977   21.3173 C   0  0  0  0  0  0  0  0  0  0  0  0
   18.5888   18.2249   20.6254 H   0  0  0  0  0  0  0  0  0  0  0  0
   20.3708   19.4157   21.1807 C   0  0  0  0  0  0  0  0  0  0  0  0
   20.4646   20.4997   21.3322 H   0  0  0  0  0  0  0  0  0  0  0  0
   20.7176   19.2119   20.1586 H   0  0  0  0  0  0  0  0  0  0  0  0
   21.2686   18.6695   22.1887 C   0  0  0  0  0  0  0  0  0  0  0  0
   20.9255   18.8757   23.2121 H   0  0  0  0  0  0  0  0  0  0  0  0
   21.1746   17.5856   22.0339 H   0  0  0  0  0  0  0  0  0  0  0  0
   22.7475   19.0830   22.0495 C   0  0  0  0  0  0  0  0  0  0  0  0
   23.1255   18.8580   21.0436 H   0  0  0  0  0  0  0  0  0  0  0  0
   22.8733   20.1586   22.2306 H   0  0  0  0  0  0  0  0  0  0  0  0
   23.3701   18.5424   22.7742 H   0  0  0  0  0  0  0  0  0  0  0  0
  1  2  1  0  0  0  0
  1  3  2  0  0  0  0
  1  4  1  0  0  0  0
  4  5  1  0  0  0  0
  4  6  2  0  0  0  0
  6  7  1  0  0  0  0
  6  8  1  0  0  0  0
  8  9  1  0  0  0  0
  8 10  1  0  0  0  0
  8 11  1  0  0  0  0
 11 12  1  0  0  0  0
 11 13  1  0  0  0  0
 11 14  1  0  0  0  0
 14 15  1  0  0  0  0
 14 16  1  0  0  0  0
 14 17  1  0  0  0  0
M  END
> <VConfSearch Rank>
229

> <Conf_Id>
36

> <Delta U+W>
0.000

> <U+W>
-53.409

> <U>
9.048

> <W>
-62.457

> <W(PB)>
-64.540

> <W(SA)>
2.084

> <Valence>
2.652

> <Coulomb>
5.578

> <VdW>
0.818

> <VdW6>
-4.534

> <VdW12>
5.352

> <Bond>
0.063

> <Angle>
2.579

> <Pdih>
0.010

> <Idih>
0.000

> <Tether>
0.000

$$$$
VeraChem MOL file


 17 16  0  0  0  0  0  0  0  0999 V2000     
   19.4635   17.4614   19.0134 C   0  0  0  0  0  0  0  0  0  0  0  0
   20.5090   16.9177   18.7108 O   0  5  0  0  0  0  0  0  0  0  0  0
   18.5155   17.5369   18.2562 O   0  0  0  0  0  0  0  0  0  0  0  0
   19.3141   18.0667   20.3645 C   0  0  0  0  0  0  0  0  0  0  0  0
   18.3551   18.5364   20.5707 H   0  0  0  0  0  0  0  0  0  0  0  0
   20.2849   18.0576   21.3060 C   0  0  0  0  0  0  0  0  0  0  0  0
   21.2503   17.5916   21.1092 H   0  0  0  0  0  0  0  0  0  0  0  0
   20.1255   18.6771   22.6772 C   0  0  0  0  0  0  0  0  0  0  0  0
   20.8094   18.1877   23.3837 H   0  0  0  0  0  0  0  0  0  0  0  0
   19.1086   18.5003   23.0532 H   0  0  0  0  0  0  0  0  0  0  0  0
   20.4129   20.1922   22.6461 C   0  0  0  0  0  0  0  0  0  0  0  0
   21.4312   20.3664   22.2717 H   0  0  0  0  0  0  0  0  0  0  0  0
   19.7267   20.6840   21.9427 H   0  0  0  0  0  0  0  0  0  0  0  0
   20.2615   20.8296   24.0419 C   0  0  0  0  0  0  0  0  0  0  0  0
   20.9598   20.3772   24.7584 H   0  0  0  0  0  0  0  0  0  0  0  0
   20.4697   21.9066   23.9999 H   0  0  0  0  0  0  0  0  0  0  0  0
   19.2417   20.6963   24.4261 H   0  0  0  0  0  0  0  0  0  0  0  0
  1  2  1  0  0  0  0
  1  3  2  0  0  0  0
  1  4  1  0  0  0  0
  4  5  1  0  0  0  0
  4  6  2  0  0  0  0
  6  7  1  0  0  0  0
  6  8  1  0  0  0  0
  8  9  1  0  0  0  0
  8 10  1  0  0  0  0
  8 11  1  0  0  0  0
 11 12  1  0  0  0  0
 11 13  1  0  0  0  0
 11 14  1  0  0  0  0
 14 15  1  0  0  0  0
 14 16  1  0  0  0  0
 14 17  1  0  0  0  0
M  END
> <VConfSearch Rank>
230

> <Conf_Id>
1

> <Delta U+W>
0.030

> <U+W>
-53.378

> <U>
9.048

> <W>
-62.426

> <W(PB)>
-64.506

> <W(SA)>
2.080

> <Valence>
2.652

> <Coulomb>
5.578

> <VdW>
0.818

> <VdW6>
-4.535

> <VdW12>
5.352

> <Bond>
0.063

> <Angle>
2.579

> <Pdih>
0.010

> <Idih>
0.000

> <Tether>
0.000

$$$$
VeraChem MOL file


 17 16  0  0  0  0  0  0  0  0999 V2000     
   20.9220   21.9208   21.2412 C   0  0  0  0  0  0  0  0  0  0  0  0
   20.6953   21.8902   20.0461 O   0  5  0  0  0  0  0  0  0  0  0  0
   21.1208   22.9548   21.8488 O   0  0  0  0  0  0  0  0  0  0  0  0
   20.9663   20.6501   22.0140 C   0  0  0  0  0  0  0  0  0  0  0  0
   21.1745   20.7479   23.0770 H   0  0  0  0  0  0  0  0  0  0  0  0
   20.7629   19.4291   21.4692 C   0  0  0  0  0  0  0  0  0  0  0  0
   20.5503   19.3198   20.4059 H   0  0  0  0  0  0  0  0  0  0  0  0
   20.8058   18.1403   22.2629 C   0  0  0  0  0  0  0  0  0  0  0  0
   21.6328   18.1796   22.9847 H   0  0  0  0  0  0  0  0  0  0  0  0
   21.0235   17.2972   21.5935 H   0  0  0  0  0  0  0  0  0  0  0  0
   19.4862   17.8718   23.0193 C   0  0  0  0  0  0  0  0  0  0  0  0
   19.6115   16.9858   23.6569 H   0  0  0  0  0  0  0  0  0  0  0  0
   19.2663   18.7132   23.6909 H   0  0  0  0  0  0  0  0  0  0  0  0
   18.2941   17.6424   22.0658 C   0  0  0  0  0  0  0  0  0  0  0  0
   18.4867   16.7969   21.3927 H   0  0  0  0  0  0  0  0  0  0  0  0
   17.3818   17.4217   22.6348 H   0  0  0  0  0  0  0  0  0  0  0  0
   18.1009   18.5320   21.4522 H   0  0  0  0  0  0  0  0  0  0  0  0
  1  2  1  0  0  0  0
  1  3  2  0  0  0  0
  1  4  1  0  0  0  0
  4  5  1  0  0  0  0
  4  6  2  0  0  0  0
  6  7  1  0  0  0  0
  6  8  1  0  0  0  0
  8  9  1  0  0  0  0
  8 10  1  0  0  0  0
  8 11  1  0  0  0  0
 11 12  1  0  0  0  0
 11 13  1  0  0  0  0
 11 14  1  0  0  0  0
 14 15  1  0  0  0  0
 14 16  1  0  0  0  0
 14 17  1  0  0  0  0
M  END
> <VConfSearch Rank>
231

> <Conf_Id>
3

> <Delta U+W>
0.531

> <U+W>
-52.878

> <U>
10.067

> <W>
-62.945

> <W(PB)>
-64.982

> <W(SA)>
2.037

> <Valence>
2.779

> <Coulomb>
6.474

> <VdW>
0.815

> <VdW6>
-5.088

> <VdW12>
5.902

> <Bond>
0.078

> <Angle>
2.651

> <Pdih>
0.050

> <Idih>
0.000

> <Tether>
0.000

$$$$
VeraChem MOL file


 17 16  0  0  0  0  0  0  0  0999 V2000     
   17.6911   17.2467   21.3983 C   0  0  0  0  0  0  0  0  0  0  0  0
   17.6768   16.0344   21.3096 O   0  5  0  0  0  0  0  0  0  0  0  0
   16.8527   17.9570   20.8757 O   0  0  0  0  0  0  0  0  0  0  0  0
   18.7898   17.8653   22.1884 C   0  0  0  0  0  0  0  0  0  0  0  0
   19.5046   17.1737   22.6282 H   0  0  0  0  0  0  0  0  0  0  0  0
   18.9304   19.1985   22.3683 C   0  0  0  0  0  0  0  0  0  0  0  0
   18.2209   19.8986   21.9281 H   0  0  0  0  0  0  0  0  0  0  0  0
   20.0517   19.8253   23.1709 C   0  0  0  0  0  0  0  0  0  0  0  0
   20.5284   19.0770   23.8187 H   0  0  0  0  0  0  0  0  0  0  0  0
   19.6305   20.5858   23.8418 H   0  0  0  0  0  0  0  0  0  0  0  0
   21.1180   20.4870   22.2707 C   0  0  0  0  0  0  0  0  0  0  0  0
   20.6416   21.2338   21.6205 H   0  0  0  0  0  0  0  0  0  0  0  0
   21.8329   21.0317   22.9027 H   0  0  0  0  0  0  0  0  0  0  0  0
   21.8871   19.4624   21.4096 C   0  0  0  0  0  0  0  0  0  0  0  0
   21.2132   18.9419   20.7168 H   0  0  0  0  0  0  0  0  0  0  0  0
   22.6611   19.9628   20.8134 H   0  0  0  0  0  0  0  0  0  0  0  0
   22.3782   18.7098   22.0401 H   0  0  0  0  0  0  0  0  0  0  0  0
  1  2  1  0  0  0  0
  1  3  2  0  0  0  0
  1  4  1  0  0  0  0
  4  5  1  0  0  0  0
  4  6  2  0  0  0  0
  6  7  1  0  0  0  0
  6  8  1  0  0  0  0
  8  9  1  0  0  0  0
  8 10  1  0  0  0  0
  8 11  1  0  0  0  0
 11 12  1  0  0  0  0
 11 13  1  0  0  0  0
 11 14  1  0  0  0  0
 14 15  1  0  0  0  0
 14 16  1  0  0  0  0
 14 17  1  0  0  0  0
M  END
> <VConfSearch Rank>
232

> <Conf_Id>
45

> <Delta U+W>
0.562

> <U+W>
-52.846

> <U>
10.243

> <W>
-63.089

> <W(PB)>
-65.116

> <W(SA)>
2.026

> <Valence>
2.822

> <Coulomb>
6.637

> <VdW>
0.785

> <VdW6>
-5.216

> <VdW12>
6.001

> <Bond>
0.080

> <Angle>
2.678

> <Pdih>
0.064

> <Idih>
0.000

> <Tether>
0.000

$$$$
VeraChem MOL file


 17 16  0  0  0  0  0  0  0  0999 V2000     
   22.8464   20.8984   22.1709 C   0  0  0  0  0  0  0  0  0  0  0  0
   23.2988   21.4923   23.1302 O   0  5  0  0  0  0  0  0  0  0  0  0
   23.2717   21.0477   21.0408 O   0  0  0  0  0  0  0  0  0  0  0  0
   21.7245   19.9518   22.4148 C   0  0  0  0  0  0  0  0  0  0  0  0
   21.3923   19.8654   23.4469 H   0  0  0  0  0  0  0  0  0  0  0  0
   21.1253   19.2268   21.4431 C   0  0  0  0  0  0  0  0  0  0  0  0
   21.4486   19.3074   20.4054 H   0  0  0  0  0  0  0  0  0  0  0  0
   19.9834   18.2678   21.6993 C   0  0  0  0  0  0  0  0  0  0  0  0
   20.1450   17.7360   22.6469 H   0  0  0  0  0  0  0  0  0  0  0  0
   19.9618   17.5028   20.9114 H   0  0  0  0  0  0  0  0  0  0  0  0
   18.6291   19.0048   21.7403 C   0  0  0  0  0  0  0  0  0  0  0  0
   18.6476   19.7678   22.5309 H   0  0  0  0  0  0  0  0  0  0  0  0
   18.4689   19.5342   20.7908 H   0  0  0  0  0  0  0  0  0  0  0  0
   17.4588   18.0328   21.9917 C   0  0  0  0  0  0  0  0  0  0  0  0
   17.3978   17.2774   21.1974 H   0  0  0  0  0  0  0  0  0  0  0  0
   17.5793   17.5127   22.9511 H   0  0  0  0  0  0  0  0  0  0  0  0
   16.5046   18.5749   22.0177 H   0  0  0  0  0  0  0  0  0  0  0  0
  1  2  1  0  0  0  0
  1  3  2  0  0  0  0
  1  4  1  0  0  0  0
  4  5  1  0  0  0  0
  4  6  2  0  0  0  0
  6  7  1  0  0  0  0
  6  8  1  0  0  0  0
  8  9  1  0  0  0  0
  8 10  1  0  0  0  0
  8 11  1  0  0  0  0
 11 12  1  0  0  0  0
 11 13  1  0  0  0  0
 11 14  1  0  0  0  0
 14 15  1  0  0  0  0
 14 16  1  0  0  0  0
 14 17  1  0  0  0  0
M  END
> <VConfSearch Rank>
233

> <Conf_Id>
36

> <Delta U+W>
0.000

> <U+W>
-53.409

> <U>
9.048

> <W>
-62.457

> <W(PB)>
-64.540

> <W(SA)>
2.084

> <Valence>
2.652

> <Coulomb>
5.578

> <VdW>
0.818

> <VdW6>
-4.534

> <VdW12>
5.352

> <Bond>
0.063

> <Angle>
2.579

> <Pdih>
0.010

> <Idih>
0.000

> <Tether>
0.000

$$$$
VeraChem MOL file


 17 16  0  0  0  0  0  0  0  0999 V2000     
   21.2669   19.1884   25.0440 C   0  0  0  0  0  0  0  0  0  0  0  0
   20.8260   18.2174   25.6298 O   0  5  0  0  0  0  0  0  0  0  0  0
   21.8584   20.0876   25.6088 O   0  0  0  0  0  0  0  0  0  0  0  0
   21.0878   19.3019   23.5712 C   0  0  0  0  0  0  0  0  0  0  0  0
   21.5055   20.1938   23.1096 H   0  0  0  0  0  0  0  0  0  0  0  0
   20.4503   18.3787   22.8160 C   0  0  0  0  0  0  0  0  0  0  0  0
   20.0262   17.4825   23.2684 H   0  0  0  0  0  0  0  0  0  0  0  0
   20.2709   18.5027   21.3188 C   0  0  0  0  0  0  0  0  0  0  0  0
   20.1461   17.5039   20.8793 H   0  0  0  0  0  0  0  0  0  0  0  0
   21.1750   18.9324   20.8665 H   0  0  0  0  0  0  0  0  0  0  0  0
   19.0486   19.3764   20.9698 C   0  0  0  0  0  0  0  0  0  0  0  0
   18.1452   18.9434   21.4214 H   0  0  0  0  0  0  0  0  0  0  0  0
   19.1737   20.3775   21.4053 H   0  0  0  0  0  0  0  0  0  0  0  0
   18.8533   19.5002   19.4453 C   0  0  0  0  0  0  0  0  0  0  0  0
   18.6942   18.5147   18.9882 H   0  0  0  0  0  0  0  0  0  0  0  0
   17.9799   20.1247   19.2167 H   0  0  0  0  0  0  0  0  0  0  0  0
   19.7314   19.9597   18.9728 H   0  0  0  0  0  0  0  0  0  0  0  0
  1  2  1  0  0  0  0
  1  3  2  0  0  0  0
  1  4  1  0  0  0  0
  4  5  1  0  0  0  0
  4  6  2  0  0  0  0
  6  7  1  0  0  0  0
  6  8  1  0  0  0  0
  8  9  1  0  0  0  0
  8 10  1  0  0  0  0
  8 11  1  0  0  0  0
 11 12  1  0  0  0  0
 11 13  1  0  0  0  0
 11 14  1  0  0  0  0
 14 15  1  0  0  0  0
 14 16  1  0  0  0  0
 14 17  1  0  0  0  0
M  END
> <VConfSearch Rank>
234

> <Conf_Id>
1

> <Delta U+W>
0.030

> <U+W>
-53.378

> <U>
9.048

> <W>
-62.426

> <W(PB)>
-64.506

> <W(SA)>
2.080

> <Valence>
2.652

> <Coulomb>
5.578

> <VdW>
0.818

> <VdW6>
-4.535

> <VdW12>
5.352

> <Bond>
0.063

> <Angle>
2.579

> <Pdih>
0.010

> <Idih>
0.000

> <Tether>
0.000

$$$$
VeraChem MOL file


 17 16  0  0  0  0  0  0  0  0999 V2000     
   23.0777   19.0135   21.6985 C   0  0  0  0  0  0  0  0  0  0  0  0
   23.1704   19.3126   20.5228 O   0  5  0  0  0  0  0  0  0  0  0  0
   24.0216   19.0459   22.4640 O   0  0  0  0  0  0  0  0  0  0  0  0
   21.7631   18.5827   22.2463 C   0  0  0  0  0  0  0  0  0  0  0  0
   21.7496   18.3287   23.3037 H   0  0  0  0  0  0  0  0  0  0  0  0
   20.6306   18.5014   21.5116 C   0  0  0  0  0  0  0  0  0  0  0  0
   20.6320   18.7567   20.4521 H   0  0  0  0  0  0  0  0  0  0  0  0
   19.2951   18.0657   22.0770 C   0  0  0  0  0  0  0  0  0  0  0  0
   19.4445   17.2261   22.7693 H   0  0  0  0  0  0  0  0  0  0  0  0
   18.6541   17.6866   21.2697 H   0  0  0  0  0  0  0  0  0  0  0  0
   18.5694   19.2100   22.8183 C   0  0  0  0  0  0  0  0  0  0  0  0
   17.6631   18.8114   23.2947 H   0  0  0  0  0  0  0  0  0  0  0  0
   19.2078   19.5907   23.6276 H   0  0  0  0  0  0  0  0  0  0  0  0
   18.1766   20.3688   21.8772 C   0  0  0  0  0  0  0  0  0  0  0  0
   17.5271   20.0135   21.0666 H   0  0  0  0  0  0  0  0  0  0  0  0
   17.6344   21.1474   22.4293 H   0  0  0  0  0  0  0  0  0  0  0  0
   19.0644   20.8320   21.4272 H   0  0  0  0  0  0  0  0  0  0  0  0
  1  2  1  0  0  0  0
  1  3  2  0  0  0  0
  1  4  1  0  0  0  0
  4  5  1  0  0  0  0
  4  6  2  0  0  0  0
  6  7  1  0  0  0  0
  6  8  1  0  0  0  0
  8  9  1  0  0  0  0
  8 10  1  0  0  0  0
  8 11  1  0  0  0  0
 11 12  1  0  0  0  0
 11 13  1  0  0  0  0
 11 14  1  0  0  0  0
 14 15  1  0  0  0  0
 14 16  1  0  0  0  0
 14 17  1  0  0  0  0
M  END
> <VConfSearch Rank>
235

> <Conf_Id>
3

> <Delta U+W>
0.531

> <U+W>
-52.878

> <U>
10.067

> <W>
-62.945

> <W(PB)>
-64.982

> <W(SA)>
2.037

> <Valence>
2.779

> <Coulomb>
6.474

> <VdW>
0.815

> <VdW6>
-5.088

> <VdW12>
5.902

> <Bond>
0.078

> <Angle>
2.651

> <Pdih>
0.050

> <Idih>
0.000

> <Tether>
0.000

$$$$
VeraChem MOL file


 17 16  0  0  0  0  0  0  0  0999 V2000     
   22.7602   20.1449   21.5482 C   0  0  0  0  0  0  0  0  0  0  0  0
   23.2045   20.7014   20.5630 O   0  5  0  0  0  0  0  0  0  0  0  0
   23.4673   19.5906   22.3688 O   0  0  0  0  0  0  0  0  0  0  0  0
   21.2845   20.1584   21.7385 C   0  0  0  0  0  0  0  0  0  0  0  0
   20.7121   20.6706   20.9687 H   0  0  0  0  0  0  0  0  0  0  0  0
   20.6543   19.5781   22.7853 C   0  0  0  0  0  0  0  0  0  0  0  0
   21.2199   19.0597   23.5592 H   0  0  0  0  0  0  0  0  0  0  0  0
   19.1516   19.5912   22.9748 C   0  0  0  0  0  0  0  0  0  0  0  0
   18.6900   20.3678   22.3498 H   0  0  0  0  0  0  0  0  0  0  0  0
   18.9239   19.8611   24.0147 H   0  0  0  0  0  0  0  0  0  0  0  0
   18.5092   18.2224   22.6605 C   0  0  0  0  0  0  0  0  0  0  0  0
   18.9722   17.4446   23.2834 H   0  0  0  0  0  0  0  0  0  0  0  0
   17.4461   18.2536   22.9361 H   0  0  0  0  0  0  0  0  0  0  0  0
   18.6314   17.8371   21.1707 C   0  0  0  0  0  0  0  0  0  0  0  0
   19.6829   17.7328   20.8734 H   0  0  0  0  0  0  0  0  0  0  0  0
   18.1308   16.8795   20.9773 H   0  0  0  0  0  0  0  0  0  0  0  0
   18.1679   18.5978   20.5292 H   0  0  0  0  0  0  0  0  0  0  0  0
  1  2  1  0  0  0  0
  1  3  2  0  0  0  0
  1  4  1  0  0  0  0
  4  5  1  0  0  0  0
  4  6  2  0  0  0  0
  6  7  1  0  0  0  0
  6  8  1  0  0  0  0
  8  9  1  0  0  0  0
  8 10  1  0  0  0  0
  8 11  1  0  0  0  0
 11 12  1  0  0  0  0
 11 13  1  0  0  0  0
 11 14  1  0  0  0  0
 14 15  1  0  0  0  0
 14 16  1  0  0  0  0
 14 17  1  0  0  0  0
M  END
> <VConfSearch Rank>
236

> <Conf_Id>
45

> <Delta U+W>
0.562

> <U+W>
-52.846

> <U>
10.243

> <W>
-63.089

> <W(PB)>
-65.116

> <W(SA)>
2.026

> <Valence>
2.822

> <Coulomb>
6.637

> <VdW>
0.785

> <VdW6>
-5.216

> <VdW12>
6.001

> <Bond>
0.080

> <Angle>
2.678

> <Pdih>
0.064

> <Idih>
0.000

> <Tether>
0.000

$$$$
VeraChem MOL file


 17 16  0  0  0  0  0  0  0  0999 V2000     
   22.4443   21.0341   20.6106 C   0  0  0  0  0  0  0  0  0  0  0  0
   23.6462   20.8523   20.6124 O   0  5  0  0  0  0  0  0  0  0  0  0
   21.9377   22.0994   20.3122 O   0  0  0  0  0  0  0  0  0  0  0  0
   21.5750   19.8883   20.9924 C   0  0  0  0  0  0  0  0  0  0  0  0
   22.0910   18.9655   21.2475 H   0  0  0  0  0  0  0  0  0  0  0  0
   20.2246   19.9481   21.0350 C   0  0  0  0  0  0  0  0  0  0  0  0
   19.6975   20.8683   20.7837 H   0  0  0  0  0  0  0  0  0  0  0  0
   19.3480   18.7787   21.4265 C   0  0  0  0  0  0  0  0  0  0  0  0
   19.7619   17.8462   21.0192 H   0  0  0  0  0  0  0  0  0  0  0  0
   18.3520   18.8999   20.9796 H   0  0  0  0  0  0  0  0  0  0  0  0
   19.2156   18.6640   22.9589 C   0  0  0  0  0  0  0  0  0  0  0  0
   20.2109   18.5385   23.4073 H   0  0  0  0  0  0  0  0  0  0  0  0
   18.7995   19.5971   23.3636 H   0  0  0  0  0  0  0  0  0  0  0  0
   18.3157   17.4799   23.3660 C   0  0  0  0  0  0  0  0  0  0  0  0
   17.3037   17.5964   22.9566 H   0  0  0  0  0  0  0  0  0  0  0  0
   18.7267   16.5300   22.9995 H   0  0  0  0  0  0  0  0  0  0  0  0
   18.2336   17.4143   24.4587 H   0  0  0  0  0  0  0  0  0  0  0  0
  1  2  1  0  0  0  0
  1  3  2  0  0  0  0
  1  4  1  0  0  0  0
  4  5  1  0  0  0  0
  4  6  2  0  0  0  0
  6  7  1  0  0  0  0
  6  8  1  0  0  0  0
  8  9  1  0  0  0  0
  8 10  1  0  0  0  0
  8 11  1  0  0  0  0
 11 12  1  0  0  0  0
 11 13  1  0  0  0  0
 11 14  1  0  0  0  0
 14 15  1  0  0  0  0
 14 16  1  0  0  0  0
 14 17  1  0  0  0  0
M  END
> <VConfSearch Rank>
237

> <Conf_Id>
36

> <Delta U+W>
0.000

> <U+W>
-53.409

> <U>
9.048

> <W>
-62.457

> <W(PB)>
-64.540

> <W(SA)>
2.084

> <Valence>
2.652

> <Coulomb>
5.578

> <VdW>
0.818

> <VdW6>
-4.534

> <VdW12>
5.352

> <Bond>
0.063

> <Angle>
2.579

> <Pdih>
0.010

> <Idih>
0.000

> <Tether>
0.000

$$$$
VeraChem MOL file


 17 16  0  0  0  0  0  0  0  0999 V2000     
   16.8221   18.0149   21.7538 C   0  0  0  0  0  0  0  0  0  0  0  0
   16.8310   16.8392   22.0671 O   0  5  0  0  0  0  0  0  0  0  0  0
   15.8477   18.5635   21.2770 O   0  0  0  0  0  0  0  0  0  0  0  0
   18.0451   18.8383   21.9548 C   0  0  0  0  0  0  0  0  0  0  0  0
   17.9700   19.8808   21.6541 H   0  0  0  0  0  0  0  0  0  0  0  0
   19.1990   18.3599   22.4731 C   0  0  0  0  0  0  0  0  0  0  0  0
   19.2859   17.3165   22.7756 H   0  0  0  0  0  0  0  0  0  0  0  0
   20.4390   19.2037   22.6725 C   0  0  0  0  0  0  0  0  0  0  0  0
   21.0559   18.7682   23.4701 H   0  0  0  0  0  0  0  0  0  0  0  0
   20.1578   20.2108   23.0095 H   0  0  0  0  0  0  0  0  0  0  0  0
   21.2669   19.3013   21.3748 C   0  0  0  0  0  0  0  0  0  0  0  0
   21.5488   18.2930   21.0410 H   0  0  0  0  0  0  0  0  0  0  0  0
   20.6524   19.7406   20.5767 H   0  0  0  0  0  0  0  0  0  0  0  0
   22.5375   20.1522   21.5722 C   0  0  0  0  0  0  0  0  0  0  0  0
   23.1860   19.7170   22.3439 H   0  0  0  0  0  0  0  0  0  0  0  0
   23.1130   20.2101   20.6391 H   0  0  0  0  0  0  0  0  0  0  0  0
   22.2816   21.1756   21.8765 H   0  0  0  0  0  0  0  0  0  0  0  0
  1  2  1  0  0  0  0
  1  3  2  0  0  0  0
  1  4  1  0  0  0  0
  4  5  1  0  0  0  0
  4  6  2  0  0  0  0
  6  7  1  0  0  0  0
  6  8  1  0  0  0  0
  8  9  1  0  0  0  0
  8 10  1  0  0  0  0
  8 11  1  0  0  0  0
 11 12  1  0  0  0  0
 11 13  1  0  0  0  0
 11 14  1  0  0  0  0
 14 15  1  0  0  0  0
 14 16  1  0  0  0  0
 14 17  1  0  0  0  0
M  END
> <VConfSearch Rank>
238

> <Conf_Id>
1

> <Delta U+W>
0.030

> <U+W>
-53.378

> <U>
9.048

> <W>
-62.426

> <W(PB)>
-64.506

> <W(SA)>
2.080

> <Valence>
2.652

> <Coulomb>
5.578

> <VdW>
0.818

> <VdW6>
-4.535

> <VdW12>
5.352

> <Bond>
0.063

> <Angle>
2.579

> <Pdih>
0.010

> <Idih>
0.000

> <Tether>
0.000

$$$$
VeraChem MOL file


 17 16  0  0  0  0  0  0  0  0999 V2000     
   18.5470   21.4293   20.6872 C   0  0  0  0  0  0  0  0  0  0  0  0
   18.3759   20.9634   19.5763 O   0  5  0  0  0  0  0  0  0  0  0  0
   17.9495   22.4077   21.0916 O   0  0  0  0  0  0  0  0  0  0  0  0
   19.5277   20.7935   21.6081 C   0  0  0  0  0  0  0  0  0  0  0  0
   19.6330   21.2599   22.5850 H   0  0  0  0  0  0  0  0  0  0  0  0
   20.2602   19.7016   21.2919 C   0  0  0  0  0  0  0  0  0  0  0  0
   20.1602   19.2244   20.3173 H   0  0  0  0  0  0  0  0  0  0  0  0
   21.2537   19.0577   22.2360 C   0  0  0  0  0  0  0  0  0  0  0  0
   21.8143   19.8376   22.7688 H   0  0  0  0  0  0  0  0  0  0  0  0
   21.9953   18.4849   21.6630 H   0  0  0  0  0  0  0  0  0  0  0  0
   20.5703   18.1321   23.2664 C   0  0  0  0  0  0  0  0  0  0  0  0
   21.3218   17.7788   23.9859 H   0  0  0  0  0  0  0  0  0  0  0  0
   19.8285   18.7027   23.8422 H   0  0  0  0  0  0  0  0  0  0  0  0
   19.8908   16.9129   22.6072 C   0  0  0  0  0  0  0  0  0  0  0  0
   20.6169   16.3200   22.0358 H   0  0  0  0  0  0  0  0  0  0  0  0
   19.4453   16.2605   23.3693 H   0  0  0  0  0  0  0  0  0  0  0  0
   19.0910   17.2267   21.9238 H   0  0  0  0  0  0  0  0  0  0  0  0
  1  2  1  0  0  0  0
  1  3  2  0  0  0  0
  1  4  1  0  0  0  0
  4  5  1  0  0  0  0
  4  6  2  0  0  0  0
  6  7  1  0  0  0  0
  6  8  1  0  0  0  0
  8  9  1  0  0  0  0
  8 10  1  0  0  0  0
  8 11  1  0  0  0  0
 11 12  1  0  0  0  0
 11 13  1  0  0  0  0
 11 14  1  0  0  0  0
 14 15  1  0  0  0  0
 14 16  1  0  0  0  0
 14 17  1  0  0  0  0
M  END
> <VConfSearch Rank>
239

> <Conf_Id>
3

> <Delta U+W>
0.531

> <U+W>
-52.878

> <U>
10.067

> <W>
-62.945

> <W(PB)>
-64.982

> <W(SA)>
2.037

> <Valence>
2.779

> <Coulomb>
6.474

> <VdW>
0.815

> <VdW6>
-5.088

> <VdW12>
5.902

> <Bond>
0.078

> <Angle>
2.651

> <Pdih>
0.050

> <Idih>
0.000

> <Tether>
0.000

$$$$
VeraChem MOL file


 17 16  0  0  0  0  0  0  0  0999 V2000     
   22.3414   17.3240   21.4638 C   0  0  0  0  0  0  0  0  0  0  0  0
   22.4243   16.1113   21.4806 O   0  5  0  0  0  0  0  0  0  0  0  0
   23.3124   18.0534   21.5387 O   0  0  0  0  0  0  0  0  0  0  0  0
   20.9827   17.9185   21.3425 C   0  0  0  0  0  0  0  0  0  0  0  0
   20.1596   17.2105   21.2799 H   0  0  0  0  0  0  0  0  0  0  0  0
   20.7423   19.2493   21.3136 C   0  0  0  0  0  0  0  0  0  0  0  0
   21.5609   19.9655   21.3796 H   0  0  0  0  0  0  0  0  0  0  0  0
   19.3577   19.8515   21.1929 C   0  0  0  0  0  0  0  0  0  0  0  0
   18.6408   19.1024   20.8300 H   0  0  0  0  0  0  0  0  0  0  0  0
   19.3776   20.6468   20.4358 H   0  0  0  0  0  0  0  0  0  0  0  0
   18.8576   20.4439   22.5286 C   0  0  0  0  0  0  0  0  0  0  0  0
   19.5755   21.1915   22.8936 H   0  0  0  0  0  0  0  0  0  0  0  0
   17.9125   20.9760   22.3532 H   0  0  0  0  0  0  0  0  0  0  0  0
   18.6343   19.3653   23.6101 C   0  0  0  0  0  0  0  0  0  0  0  0
   19.5732   18.8540   23.8594 H   0  0  0  0  0  0  0  0  0  0  0  0
   18.2427   19.8170   24.5307 H   0  0  0  0  0  0  0  0  0  0  0  0
   17.9135   18.6109   23.2691 H   0  0  0  0  0  0  0  0  0  0  0  0
  1  2  1  0  0  0  0
  1  3  2  0  0  0  0
  1  4  1  0  0  0  0
  4  5  1  0  0  0  0
  4  6  2  0  0  0  0
  6  7  1  0  0  0  0
  6  8  1  0  0  0  0
  8  9  1  0  0  0  0
  8 10  1  0  0  0  0
  8 11  1  0  0  0  0
 11 12  1  0  0  0  0
 11 13  1  0  0  0  0
 11 14  1  0  0  0  0
 14 15  1  0  0  0  0
 14 16  1  0  0  0  0
 14 17  1  0  0  0  0
M  END
> <VConfSearch Rank>
240

> <Conf_Id>
45

> <Delta U+W>
0.562

> <U+W>
-52.846

> <U>
10.243

> <W>
-63.089

> <W(PB)>
-65.116

> <W(SA)>
2.026

> <Valence>
2.822

> <Coulomb>
6.637

> <VdW>
0.785

> <VdW6>
-5.216

> <VdW12>
6.001

> <Bond>
0.080

> <Angle>
2.678

> <Pdih>
0.064

> <Idih>
0.000

> <Tether>
0.000

$$$$
VeraChem MOL file


 17 16  0  0  0  0  0  0  0  0999 V2000     
   22.8608   17.4019   22.3725 C   0  0  0  0  0  0  0  0  0  0  0  0
   23.0343   16.2016   22.4559 O   0  5  0  0  0  0  0  0  0  0  0  0
   23.7135   18.2153   22.6754 O   0  0  0  0  0  0  0  0  0  0  0  0
   21.5401   17.8727   21.8743 C   0  0  0  0  0  0  0  0  0  0  0  0
   20.8235   17.0946   21.6213 H   0  0  0  0  0  0  0  0  0  0  0  0
   21.2091   19.1763   21.7321 C   0  0  0  0  0  0  0  0  0  0  0  0
   21.9186   19.9640   21.9849 H   0  0  0  0  0  0  0  0  0  0  0  0
   19.8628   19.6466   21.2268 C   0  0  0  0  0  0  0  0  0  0  0  0
   19.5110   18.9848   20.4236 H   0  0  0  0  0  0  0  0  0  0  0  0
   19.9648   20.6471   20.7851 H   0  0  0  0  0  0  0  0  0  0  0  0
   18.8195   19.6876   22.3620 C   0  0  0  0  0  0  0  0  0  0  0  0
   18.7132   18.6864   22.8022 H   0  0  0  0  0  0  0  0  0  0  0  0
   19.1727   20.3517   23.1631 H   0  0  0  0  0  0  0  0  0  0  0  0
   17.4467   20.1751   21.8569 C   0  0  0  0  0  0  0  0  0  0  0  0
   17.5185   21.1883   21.4400 H   0  0  0  0  0  0  0  0  0  0  0  0
   17.0565   19.5096   21.0757 H   0  0  0  0  0  0  0  0  0  0  0  0
   16.7182   20.1975   22.6778 H   0  0  0  0  0  0  0  0  0  0  0  0
  1  2  1  0  0  0  0
  1  3  2  0  0  0  0
  1  4  1  0  0  0  0
  4  5  1  0  0  0  0
  4  6  2  0  0  0  0
  6  7  1  0  0  0  0
  6  8  1  0  0  0  0
  8  9  1  0  0  0  0
  8 10  1  0  0  0  0
  8 11  1  0  0  0  0
 11 12  1  0  0  0  0
 11 13  1  0  0  0  0
 11 14  1  0  0  0  0
 14 15  1  0  0  0  0
 14 16  1  0  0  0  0
 14 17  1  0  0  0  0
M  END
> <VConfSearch Rank>
241

> <Conf_Id>
36

> <Delta U+W>
0.000

> <U+W>
-53.409

> <U>
9.048

> <W>
-62.457

> <W(PB)>
-64.540

> <W(SA)>
2.084

> <Valence>
2.652

> <Coulomb>
5.578

> <VdW>
0.818

> <VdW6>
-4.534

> <VdW12>
5.352

> <Bond>
0.063

> <Angle>
2.579

> <Pdih>
0.010

> <Idih>
0.000

> <Tether>
0.000

$$$$
VeraChem MOL file


 17 16  0  0  0  0  0  0  0  0999 V2000     
   21.9563   17.1125   19.9948 C   0  0  0  0  0  0  0  0  0  0  0  0
   23.0812   17.5744   20.0368 O   0  5  0  0  0  0  0  0  0  0  0  0
   21.6308   16.2374   19.2164 O   0  0  0  0  0  0  0  0  0  0  0  0
   20.9164   17.6242   20.9281 C   0  0  0  0  0  0  0  0  0  0  0  0
   19.9328   17.1689   20.8384 H   0  0  0  0  0  0  0  0  0  0  0  0
   21.1373   18.5946   21.8439 C   0  0  0  0  0  0  0  0  0  0  0  0
   22.1185   19.0591   21.9408 H   0  0  0  0  0  0  0  0  0  0  0  0
   20.0737   19.1106   22.7881 C   0  0  0  0  0  0  0  0  0  0  0  0
   20.5499   19.5308   23.6843 H   0  0  0  0  0  0  0  0  0  0  0  0
   19.4408   18.2806   23.1306 H   0  0  0  0  0  0  0  0  0  0  0  0
   19.1994   20.1883   22.1148 C   0  0  0  0  0  0  0  0  0  0  0  0
   19.8343   21.0183   21.7751 H   0  0  0  0  0  0  0  0  0  0  0  0
   18.7189   19.7682   21.2202 H   0  0  0  0  0  0  0  0  0  0  0  0
   18.1185   20.7261   23.0739 C   0  0  0  0  0  0  0  0  0  0  0  0
   18.5735   21.1807   23.9636 H   0  0  0  0  0  0  0  0  0  0  0  0
   17.5071   21.4910   22.5777 H   0  0  0  0  0  0  0  0  0  0  0  0
   17.4502   19.9200   23.4043 H   0  0  0  0  0  0  0  0  0  0  0  0
  1  2  1  0  0  0  0
  1  3  2  0  0  0  0
  1  4  1  0  0  0  0
  4  5  1  0  0  0  0
  4  6  2  0  0  0  0
  6  7  1  0  0  0  0
  6  8  1  0  0  0  0
  8  9  1  0  0  0  0
  8 10  1  0  0  0  0
  8 11  1  0  0  0  0
 11 12  1  0  0  0  0
 11 13  1  0  0  0  0
 11 14  1  0  0  0  0
 14 15  1  0  0  0  0
 14 16  1  0  0  0  0
 14 17  1  0  0  0  0
M  END
> <VConfSearch Rank>
242

> <Conf_Id>
1

> <Delta U+W>
0.030

> <U+W>
-53.378

> <U>
9.048

> <W>
-62.426

> <W(PB)>
-64.506

> <W(SA)>
2.080

> <Valence>
2.652

> <Coulomb>
5.578

> <VdW>
0.818

> <VdW6>
-4.535

> <VdW12>
5.352

> <Bond>
0.063

> <Angle>
2.579

> <Pdih>
0.010

> <Idih>
0.000

> <Tether>
0.000

$$$$
VeraChem MOL file


 17 16  0  0  0  0  0  0  0  0999 V2000     
   17.6695   17.0913   21.9777 C   0  0  0  0  0  0  0  0  0  0  0  0
   17.5490   16.8517   23.1645 O   0  5  0  0  0  0  0  0  0  0  0  0
   16.8149   16.8147   21.1586 O   0  0  0  0  0  0  0  0  0  0  0  0
   18.9095   17.7479   21.4823 C   0  0  0  0  0  0  0  0  0  0  0  0
   18.9535   17.9326   20.4115 H   0  0  0  0  0  0  0  0  0  0  0  0
   19.9397   18.1117   22.2794 C   0  0  0  0  0  0  0  0  0  0  0  0
   19.9046   17.9344   23.3541 H   0  0  0  0  0  0  0  0  0  0  0  0
   21.1971   18.7832   21.7684 C   0  0  0  0  0  0  0  0  0  0  0  0
   21.5026   18.3203   20.8203 H   0  0  0  0  0  0  0  0  0  0  0  0
   22.0230   18.6130   22.4722 H   0  0  0  0  0  0  0  0  0  0  0  0
   21.0068   20.3007   21.5528 C   0  0  0  0  0  0  0  0  0  0  0  0
   21.9112   20.7131   21.0847 H   0  0  0  0  0  0  0  0  0  0  0  0
   20.1818   20.4740   20.8480 H   0  0  0  0  0  0  0  0  0  0  0  0
   20.7318   21.0555   22.8708 C   0  0  0  0  0  0  0  0  0  0  0  0
   21.5506   20.9066   23.5868 H   0  0  0  0  0  0  0  0  0  0  0  0
   20.6354   22.1331   22.6855 H   0  0  0  0  0  0  0  0  0  0  0  0
   19.8005   20.7100   23.3383 H   0  0  0  0  0  0  0  0  0  0  0  0
  1  2  1  0  0  0  0
  1  3  2  0  0  0  0
  1  4  1  0  0  0  0
  4  5  1  0  0  0  0
  4  6  2  0  0  0  0
  6  7  1  0  0  0  0
  6  8  1  0  0  0  0
  8  9  1  0  0  0  0
  8 10  1  0  0  0  0
  8 11  1  0  0  0  0
 11 12  1  0  0  0  0
 11 13  1  0  0  0  0
 11 14  1  0  0  0  0
 14 15  1  0  0  0  0
 14 16  1  0  0  0  0
 14 17  1  0  0  0  0
M  END
> <VConfSearch Rank>
243

> <Conf_Id>
3

> <Delta U+W>
0.531

> <U+W>
-52.878

> <U>
10.067

> <W>
-62.945

> <W(PB)>
-64.982

> <W(SA)>
2.037

> <Valence>
2.779

> <Coulomb>
6.474

> <VdW>
0.815

> <VdW6>
-5.088

> <VdW12>
5.902

> <Bond>
0.078

> <Angle>
2.651

> <Pdih>
0.050

> <Idih>
0.000

> <Tether>
0.000

$$$$
VeraChem MOL file


 17 16  0  0  0  0  0  0  0  0999 V2000     
   22.4151   20.6004   23.0363 C   0  0  0  0  0  0  0  0  0  0  0  0
   23.5933   20.3472   22.8761 O   0  5  0  0  0  0  0  0  0  0  0  0
   22.0105   21.3253   23.9258 O   0  0  0  0  0  0  0  0  0  0  0  0
   21.4454   19.9876   22.0885 C   0  0  0  0  0  0  0  0  0  0  0  0
   21.8737   19.3509   21.3180 H   0  0  0  0  0  0  0  0  0  0  0  0
   20.1079   20.1801   22.1495 C   0  0  0  0  0  0  0  0  0  0  0  0
   19.6701   20.8136   22.9205 H   0  0  0  0  0  0  0  0  0  0  0  0
   19.1230   19.5527   21.1848 C   0  0  0  0  0  0  0  0  0  0  0  0
   19.6391   19.1957   20.2832 H   0  0  0  0  0  0  0  0  0  0  0  0
   18.4140   20.3202   20.8469 H   0  0  0  0  0  0  0  0  0  0  0  0
   18.3343   18.3899   21.8260 C   0  0  0  0  0  0  0  0  0  0  0  0
   17.8198   18.7456   22.7295 H   0  0  0  0  0  0  0  0  0  0  0  0
   17.5520   18.0600   21.1287 H   0  0  0  0  0  0  0  0  0  0  0  0
   19.2335   17.1859   22.1792 C   0  0  0  0  0  0  0  0  0  0  0  0
   19.9902   17.4619   22.9251 H   0  0  0  0  0  0  0  0  0  0  0  0
   18.6345   16.3657   22.5954 H   0  0  0  0  0  0  0  0  0  0  0  0
   19.7524   16.8089   21.2883 H   0  0  0  0  0  0  0  0  0  0  0  0
  1  2  1  0  0  0  0
  1  3  2  0  0  0  0
  1  4  1  0  0  0  0
  4  5  1  0  0  0  0
  4  6  2  0  0  0  0
  6  7  1  0  0  0  0
  6  8  1  0  0  0  0
  8  9  1  0  0  0  0
  8 10  1  0  0  0  0
  8 11  1  0  0  0  0
 11 12  1  0  0  0  0
 11 13  1  0  0  0  0
 11 14  1  0  0  0  0
 14 15  1  0  0  0  0
 14 16  1  0  0  0  0
 14 17  1  0  0  0  0
M  END
> <VConfSearch Rank>
244

> <Conf_Id>
45

> <Delta U+W>
0.562

> <U+W>
-52.846

> <U>
10.243

> <W>
-63.089

> <W(PB)>
-65.116

> <W(SA)>
2.026

> <Valence>
2.822

> <Coulomb>
6.637

> <VdW>
0.785

> <VdW6>
-5.216

> <VdW12>
6.001

> <Bond>
0.080

> <Angle>
2.678

> <Pdih>
0.064

> <Idih>
0.000

> <Tether>
0.000

$$$$
VeraChem MOL file


 17 16  0  0  0  0  0  0  0  0999 V2000     
   18.3493   16.6945   20.2390 C   0  0  0  0  0  0  0  0  0  0  0  0
   17.5365   15.8900   20.6512 O   0  5  0  0  0  0  0  0  0  0  0  0
   18.8795   16.5982   19.1481 O   0  0  0  0  0  0  0  0  0  0  0  0
   18.6937   17.8394   21.1249 C   0  0  0  0  0  0  0  0  0  0  0  0
   18.1844   17.8660   22.0856 H   0  0  0  0  0  0  0  0  0  0  0  0
   19.5803   18.8064   20.7966 C   0  0  0  0  0  0  0  0  0  0  0  0
   20.0979   18.7882   19.8377 H   0  0  0  0  0  0  0  0  0  0  0  0
   19.9265   19.9663   21.7043 C   0  0  0  0  0  0  0  0  0  0  0  0
   19.0258   20.3159   22.2271 H   0  0  0  0  0  0  0  0  0  0  0  0
   20.2853   20.8112   21.1010 H   0  0  0  0  0  0  0  0  0  0  0  0
   21.0056   19.5719   22.7334 C   0  0  0  0  0  0  0  0  0  0  0  0
   20.6464   18.7294   23.3407 H   0  0  0  0  0  0  0  0  0  0  0  0
   21.9061   19.2245   22.2081 H   0  0  0  0  0  0  0  0  0  0  0  0
   21.3709   20.7516   23.6566 C   0  0  0  0  0  0  0  0  0  0  0  0
   21.7633   21.5974   23.0768 H   0  0  0  0  0  0  0  0  0  0  0  0
   20.4929   21.0981   24.2173 H   0  0  0  0  0  0  0  0  0  0  0  0
   22.1392   20.4521   24.3812 H   0  0  0  0  0  0  0  0  0  0  0  0
  1  2  1  0  0  0  0
  1  3  2  0  0  0  0
  1  4  1  0  0  0  0
  4  5  1  0  0  0  0
  4  6  2  0  0  0  0
  6  7  1  0  0  0  0
  6  8  1  0  0  0  0
  8  9  1  0  0  0  0
  8 10  1  0  0  0  0
  8 11  1  0  0  0  0
 11 12  1  0  0  0  0
 11 13  1  0  0  0  0
 11 14  1  0  0  0  0
 14 15  1  0  0  0  0
 14 16  1  0  0  0  0
 14 17  1  0  0  0  0
M  END
> <VConfSearch Rank>
245

> <Conf_Id>
36

> <Delta U+W>
0.000

> <U+W>
-53.409

> <U>
9.048

> <W>
-62.457

> <W(PB)>
-64.540

> <W(SA)>
2.084

> <Valence>
2.652

> <Coulomb>
5.578

> <VdW>
0.818

> <VdW6>
-4.534

> <VdW12>
5.352

> <Bond>
0.063

> <Angle>
2.579

> <Pdih>
0.010

> <Idih>
0.000

> <Tether>
0.000

$$$$
VeraChem MOL file


 17 16  0  0  0  0  0  0  0  0999 V2000     
   19.3156   16.1064   20.5107 C   0  0  0  0  0  0  0  0  0  0  0  0
   18.1443   16.1362   20.1827 O   0  5  0  0  0  0  0  0  0  0  0  0
   19.9778   15.0871   20.5016 O   0  0  0  0  0  0  0  0  0  0  0  0
   19.9895   17.3602   20.9443 C   0  0  0  0  0  0  0  0  0  0  0  0
   21.0361   17.2642   21.2238 H   0  0  0  0  0  0  0  0  0  0  0  0
   19.3758   18.5640   21.0039 C   0  0  0  0  0  0  0  0  0  0  0  0
   18.3269   18.6711   20.7282 H   0  0  0  0  0  0  0  0  0  0  0  0
   20.0680   19.8340   21.4478 C   0  0  0  0  0  0  0  0  0  0  0  0
   19.5571   20.7031   21.0118 H   0  0  0  0  0  0  0  0  0  0  0  0
   21.0980   19.8533   21.0665 H   0  0  0  0  0  0  0  0  0  0  0  0
   20.0795   19.9599   22.9850 C   0  0  0  0  0  0  0  0  0  0  0  0
   19.0481   19.9425   23.3638 H   0  0  0  0  0  0  0  0  0  0  0  0
   20.5940   19.0931   23.4228 H   0  0  0  0  0  0  0  0  0  0  0  0
   20.7752   21.2566   23.4454 C   0  0  0  0  0  0  0  0  0  0  0  0
   20.2611   22.1412   23.0471 H   0  0  0  0  0  0  0  0  0  0  0  0
   20.7736   21.3285   24.5408 H   0  0  0  0  0  0  0  0  0  0  0  0
   21.8189   21.2844   23.1055 H   0  0  0  0  0  0  0  0  0  0  0  0
  1  2  1  0  0  0  0
  1  3  2  0  0  0  0
  1  4  1  0  0  0  0
  4  5  1  0  0  0  0
  4  6  2  0  0  0  0
  6  7  1  0  0  0  0
  6  8  1  0  0  0  0
  8  9  1  0  0  0  0
  8 10  1  0  0  0  0
  8 11  1  0  0  0  0
 11 12  1  0  0  0  0
 11 13  1  0  0  0  0
 11 14  1  0  0  0  0
 14 15  1  0  0  0  0
 14 16  1  0  0  0  0
 14 17  1  0  0  0  0
M  END
> <VConfSearch Rank>
246

> <Conf_Id>
1

> <Delta U+W>
0.030

> <U+W>
-53.378

> <U>
9.048

> <W>
-62.426

> <W(PB)>
-64.506

> <W(SA)>
2.080

> <Valence>
2.652

> <Coulomb>
5.578

> <VdW>
0.818

> <VdW6>
-4.535

> <VdW12>
5.352

> <Bond>
0.063

> <Angle>
2.579

> <Pdih>
0.010

> <Idih>
0.000

> <Tether>
0.000

$$$$
VeraChem MOL file


 17 16  0  0  0  0  0  0  0  0999 V2000     
   20.2810   16.9564   24.2611 C   0  0  0  0  0  0  0  0  0  0  0  0
   19.1657   17.0033   24.7450 O   0  5  0  0  0  0  0  0  0  0  0  0
   21.0531   16.0410   24.4701 O   0  0  0  0  0  0  0  0  0  0  0  0
   20.7446   18.0576   23.3741 C   0  0  0  0  0  0  0  0  0  0  0  0
   21.7513   17.9544   22.9758 H   0  0  0  0  0  0  0  0  0  0  0  0
   19.9926   19.1352   23.0546 C   0  0  0  0  0  0  0  0  0  0  0  0
   18.9814   19.2470   23.4453 H   0  0  0  0  0  0  0  0  0  0  0  0
   20.4698   20.2502   22.1479 C   0  0  0  0  0  0  0  0  0  0  0  0
   21.5194   20.4836   22.3722 H   0  0  0  0  0  0  0  0  0  0  0  0
   19.9015   21.1673   22.3537 H   0  0  0  0  0  0  0  0  0  0  0  0
   20.3405   19.8874   20.6522 C   0  0  0  0  0  0  0  0  0  0  0  0
   20.7964   20.6842   20.0486 H   0  0  0  0  0  0  0  0  0  0  0  0
   20.9091   18.9708   20.4428 H   0  0  0  0  0  0  0  0  0  0  0  0
   18.8723   19.6998   20.2139 C   0  0  0  0  0  0  0  0  0  0  0  0
   18.2870   20.6092   20.4024 H   0  0  0  0  0  0  0  0  0  0  0  0
   18.8155   19.4766   19.1407 H   0  0  0  0  0  0  0  0  0  0  0  0
   18.4002   18.8698   20.7556 H   0  0  0  0  0  0  0  0  0  0  0  0
  1  2  1  0  0  0  0
  1  3  2  0  0  0  0
  1  4  1  0  0  0  0
  4  5  1  0  0  0  0
  4  6  2  0  0  0  0
  6  7  1  0  0  0  0
  6  8  1  0  0  0  0
  8  9  1  0  0  0  0
  8 10  1  0  0  0  0
  8 11  1  0  0  0  0
 11 12  1  0  0  0  0
 11 13  1  0  0  0  0
 11 14  1  0  0  0  0
 14 15  1  0  0  0  0
 14 16  1  0  0  0  0
 14 17  1  0  0  0  0
M  END
> <VConfSearch Rank>
247

> <Conf_Id>
3

> <Delta U+W>
0.531

> <U+W>
-52.878

> <U>
10.067

> <W>
-62.945

> <W(PB)>
-64.982

> <W(SA)>
2.037

> <Valence>
2.779

> <Coulomb>
6.474

> <VdW>
0.815

> <VdW6>
-5.088

> <VdW12>
5.902

> <Bond>
0.078

> <Angle>
2.651

> <Pdih>
0.050

> <Idih>
0.000

> <Tether>
0.000

$$$$
VeraChem MOL file


 17 16  0  0  0  0  0  0  0  0999 V2000     
   19.1961   21.9423   21.4230 C   0  0  0  0  0  0  0  0  0  0  0  0
   19.2939   22.9474   22.0996 O   0  5  0  0  0  0  0  0  0  0  0  0
   18.4297   21.8514   20.4823 O   0  0  0  0  0  0  0  0  0  0  0  0
   20.0643   20.7873   21.7784 C   0  0  0  0  0  0  0  0  0  0  0  0
   20.7254   20.9355   22.6291 H   0  0  0  0  0  0  0  0  0  0  0  0
   20.0591   19.6085   21.1151 C   0  0  0  0  0  0  0  0  0  0  0  0
   19.3973   19.4502   20.2640 H   0  0  0  0  0  0  0  0  0  0  0  0
   20.9423   18.4335   21.4811 C   0  0  0  0  0  0  0  0  0  0  0  0
   21.7718   18.7589   22.1235 H   0  0  0  0  0  0  0  0  0  0  0  0
   21.4024   18.0330   20.5679 H   0  0  0  0  0  0  0  0  0  0  0  0
   20.1552   17.3046   22.1819 C   0  0  0  0  0  0  0  0  0  0  0  0
   19.3236   16.9803   21.5410 H   0  0  0  0  0  0  0  0  0  0  0  0
   20.8129   16.4334   22.3072 H   0  0  0  0  0  0  0  0  0  0  0  0
   19.6127   17.7280   23.5637 C   0  0  0  0  0  0  0  0  0  0  0  0
   18.8996   18.5575   23.4720 H   0  0  0  0  0  0  0  0  0  0  0  0
   19.0940   16.8906   24.0479 H   0  0  0  0  0  0  0  0  0  0  0  0
   20.4287   18.0492   24.2241 H   0  0  0  0  0  0  0  0  0  0  0  0
  1  2  1  0  0  0  0
  1  3  2  0  0  0  0
  1  4  1  0  0  0  0
  4  5  1  0  0  0  0
  4  6  2  0  0  0  0
  6  7  1  0  0  0  0
  6  8  1  0  0  0  0
  8  9  1  0  0  0  0
  8 10  1  0  0  0  0
  8 11  1  0  0  0  0
 11 12  1  0  0  0  0
 11 13  1  0  0  0  0
 11 14  1  0  0  0  0
 14 15  1  0  0  0  0
 14 16  1  0  0  0  0
 14 17  1  0  0  0  0
M  END
> <VConfSearch Rank>
248

> <Conf_Id>
45

> <Delta U+W>
0.562

> <U+W>
-52.846

> <U>
10.243

> <W>
-63.089

> <W(PB)>
-65.116

> <W(SA)>
2.026

> <Valence>
2.822

> <Coulomb>
6.637

> <VdW>
0.785

> <VdW6>
-5.216

> <VdW12>
6.001

> <Bond>
0.080

> <Angle>
2.678

> <Pdih>
0.064

> <Idih>
0.000

> <Tether>
0.000

$$$$
VeraChem MOL file


 17 16  0  0  0  0  0  0  0  0999 V2000     
   22.8101   19.9331   23.5803 C   0  0  0  0  0  0  0  0  0  0  0  0
   23.0809   20.9555   24.1794 O   0  5  0  0  0  0  0  0  0  0  0  0
   23.6437   19.0940   23.2951 O   0  0  0  0  0  0  0  0  0  0  0  0
   21.3899   19.7204   23.1904 C   0  0  0  0  0  0  0  0  0  0  0  0
   20.6964   20.5082   23.4755 H   0  0  0  0  0  0  0  0  0  0  0  0
   20.9470   18.6319   22.5211 C   0  0  0  0  0  0  0  0  0  0  0  0
   21.6336   17.8377   22.2285 H   0  0  0  0  0  0  0  0  0  0  0  0
   19.5011   18.4242   22.1265 C   0  0  0  0  0  0  0  0  0  0  0  0
   18.8384   18.7831   22.9257 H   0  0  0  0  0  0  0  0  0  0  0  0
   19.3013   17.3501   22.0137 H   0  0  0  0  0  0  0  0  0  0  0  0
   19.1684   19.1523   20.8081 C   0  0  0  0  0  0  0  0  0  0  0  0
   19.3638   20.2278   20.9206 H   0  0  0  0  0  0  0  0  0  0  0  0
   19.8311   18.7902   20.0098 H   0  0  0  0  0  0  0  0  0  0  0  0
   17.6987   18.9378   20.3940 C   0  0  0  0  0  0  0  0  0  0  0  0
   17.4844   17.8716   20.2436 H   0  0  0  0  0  0  0  0  0  0  0  0
   17.0142   19.3202   21.1625 H   0  0  0  0  0  0  0  0  0  0  0  0
   17.4809   19.4629   19.4548 H   0  0  0  0  0  0  0  0  0  0  0  0
  1  2  1  0  0  0  0
  1  3  2  0  0  0  0
  1  4  1  0  0  0  0
  4  5  1  0  0  0  0
  4  6  2  0  0  0  0
  6  7  1  0  0  0  0
  6  8  1  0  0  0  0
  8  9  1  0  0  0  0
  8 10  1  0  0  0  0
  8 11  1  0  0  0  0
 11 12  1  0  0  0  0
 11 13  1  0  0  0  0
 11 14  1  0  0  0  0
 14 15  1  0  0  0  0
 14 16  1  0  0  0  0
 14 17  1  0  0  0  0
M  END
> <VConfSearch Rank>
249

> <Conf_Id>
36

> <Delta U+W>
0.000

> <U+W>
-53.409

> <U>
9.048

> <W>
-62.457

> <W(PB)>
-64.540

> <W(SA)>
2.084

> <Valence>
2.652

> <Coulomb>
5.578

> <VdW>
0.818

> <VdW6>
-4.534

> <VdW12>
5.352

> <Bond>
0.063

> <Angle>
2.579

> <Pdih>
0.010

> <Idih>
0.000

> <Tether>
0.000

$$$$
VeraChem MOL file


 17 16  0  0  0  0  0  0  0  0999 V2000     
   18.3856   16.6191   20.2999 C   0  0  0  0  0  0  0  0  0  0  0  0
   17.4838   17.1415   19.6721 O   0  5  0  0  0  0  0  0  0  0  0  0
   18.4800   15.4155   20.4421 O   0  0  0  0  0  0  0  0  0  0  0  0
   19.4318   17.4698   20.9292 C   0  0  0  0  0  0  0  0  0  0  0  0
   20.2089   16.9402   21.4755 H   0  0  0  0  0  0  0  0  0  0  0  0
   19.4515   18.8200   20.8534 C   0  0  0  0  0  0  0  0  0  0  0  0
   18.6766   19.3609   20.3106 H   0  0  0  0  0  0  0  0  0  0  0  0
   20.5181   19.6779   21.4980 C   0  0  0  0  0  0  0  0  0  0  0  0
   20.5934   20.6346   20.9636 H   0  0  0  0  0  0  0  0  0  0  0  0
   21.4984   19.1906   21.4061 H   0  0  0  0  0  0  0  0  0  0  0  0
   20.2050   19.9408   22.9853 C   0  0  0  0  0  0  0  0  0  0  0  0
   19.2251   20.4302   23.0745 H   0  0  0  0  0  0  0  0  0  0  0  0
   20.1334   18.9847   23.5223 H   0  0  0  0  0  0  0  0  0  0  0  0
   21.2829   20.8224   23.6473 C   0  0  0  0  0  0  0  0  0  0  0  0
   21.3533   21.7981   23.1488 H   0  0  0  0  0  0  0  0  0  0  0  0
   21.0432   20.9984   24.7040 H   0  0  0  0  0  0  0  0  0  0  0  0
   22.2684   20.3408   23.5991 H   0  0  0  0  0  0  0  0  0  0  0  0
  1  2  1  0  0  0  0
  1  3  2  0  0  0  0
  1  4  1  0  0  0  0
  4  5  1  0  0  0  0
  4  6  2  0  0  0  0
  6  7  1  0  0  0  0
  6  8  1  0  0  0  0
  8  9  1  0  0  0  0
  8 10  1  0  0  0  0
  8 11  1  0  0  0  0
 11 12  1  0  0  0  0
 11 13  1  0  0  0  0
 11 14  1  0  0  0  0
 14 15  1  0  0  0  0
 14 16  1  0  0  0  0
 14 17  1  0  0  0  0
M  END
> <VConfSearch Rank>
250

> <Conf_Id>
1

> <Delta U+W>
0.030

> <U+W>
-53.378

> <U>
9.048

> <W>
-62.426

> <W(PB)>
-64.506

> <W(SA)>
2.080

> <Valence>
2.652

> <Coulomb>
5.578

> <VdW>
0.818

> <VdW6>
-4.535

> <VdW12>
5.352

> <Bond>
0.063

> <Angle>
2.579

> <Pdih>
0.010

> <Idih>
0.000

> <Tether>
0.000

$$$$
VeraChem MOL file


 17 16  0  0  0  0  0  0  0  0999 V2000     
   17.1768   19.5325   23.1630 C   0  0  0  0  0  0  0  0  0  0  0  0
   16.6958   20.2076   22.2724 O   0  5  0  0  0  0  0  0  0  0  0  0
   16.5025   18.9847   24.0134 O   0  0  0  0  0  0  0  0  0  0  0  0
   18.6525   19.3575   23.2380 C   0  0  0  0  0  0  0  0  0  0  0  0
   19.0167   18.7433   24.0584 H   0  0  0  0  0  0  0  0  0  0  0  0
   19.5222   19.9070   22.3601 C   0  0  0  0  0  0  0  0  0  0  0  0
   19.1679   20.5212   21.5325 H   0  0  0  0  0  0  0  0  0  0  0  0
   21.0229   19.7212   22.4405 C   0  0  0  0  0  0  0  0  0  0  0  0
   21.3452   19.7771   23.4891 H   0  0  0  0  0  0  0  0  0  0  0  0
   21.5290   20.5455   21.9202 H   0  0  0  0  0  0  0  0  0  0  0  0
   21.4811   18.3735   21.8412 C   0  0  0  0  0  0  0  0  0  0  0  0
   22.5576   18.2477   22.0215 H   0  0  0  0  0  0  0  0  0  0  0  0
   20.9772   17.5467   22.3606 H   0  0  0  0  0  0  0  0  0  0  0  0
   21.2091   18.2775   20.3248 C   0  0  0  0  0  0  0  0  0  0  0  0
   21.7141   19.0879   19.7831 H   0  0  0  0  0  0  0  0  0  0  0  0
   21.5768   17.3230   19.9264 H   0  0  0  0  0  0  0  0  0  0  0  0
   20.1342   18.3397   20.1105 H   0  0  0  0  0  0  0  0  0  0  0  0
  1  2  1  0  0  0  0
  1  3  2  0  0  0  0
  1  4  1  0  0  0  0
  4  5  1  0  0  0  0
  4  6  2  0  0  0  0
  6  7  1  0  0  0  0
  6  8  1  0  0  0  0
  8  9  1  0  0  0  0
  8 10  1  0  0  0  0
  8 11  1  0  0  0  0
 11 12  1  0  0  0  0
 11 13  1  0  0  0  0
 11 14  1  0  0  0  0
 14 15  1  0  0  0  0
 14 16  1  0  0  0  0
 14 17  1  0  0  0  0
M  END
> <VConfSearch Rank>
251

> <Conf_Id>
3

> <Delta U+W>
0.531

> <U+W>
-52.878

> <U>
10.067

> <W>
-62.945

> <W(PB)>
-64.982

> <W(SA)>
2.037

> <Valence>
2.779

> <Coulomb>
6.474

> <VdW>
0.815

> <VdW6>
-5.088

> <VdW12>
5.902

> <Bond>
0.078

> <Angle>
2.651

> <Pdih>
0.050

> <Idih>
0.000

> <Tether>
0.000

$$$$
VeraChem MOL file


 17 16  0  0  0  0  0  0  0  0999 V2000     
   21.3258   19.2936   19.3819 C   0  0  0  0  0  0  0  0  0  0  0  0
   21.0971   18.6835   18.3556 O   0  5  0  0  0  0  0  0  0  0  0  0
   22.3877   19.8465   19.5988 O   0  0  0  0  0  0  0  0  0  0  0  0
   20.2429   19.3553   20.4006 C   0  0  0  0  0  0  0  0  0  0  0  0
   19.3203   18.8403   20.1432 H   0  0  0  0  0  0  0  0  0  0  0  0
   20.3593   19.9959   21.5862 C   0  0  0  0  0  0  0  0  0  0  0  0
   21.2815   20.5113   21.8535 H   0  0  0  0  0  0  0  0  0  0  0  0
   19.2561   20.0546   22.6224 C   0  0  0  0  0  0  0  0  0  0  0  0
   18.2888   19.7926   22.1723 H   0  0  0  0  0  0  0  0  0  0  0  0
   19.1559   21.0878   22.9811 H   0  0  0  0  0  0  0  0  0  0  0  0
   19.5346   19.1307   23.8282 C   0  0  0  0  0  0  0  0  0  0  0  0
   20.5033   19.3904   24.2774 H   0  0  0  0  0  0  0  0  0  0  0  0
   18.7730   19.3089   24.5998 H   0  0  0  0  0  0  0  0  0  0  0  0
   19.5227   17.6352   23.4457 C   0  0  0  0  0  0  0  0  0  0  0  0
   20.3152   17.4051   22.7218 H   0  0  0  0  0  0  0  0  0  0  0  0
   19.6848   17.0087   24.3323 H   0  0  0  0  0  0  0  0  0  0  0  0
   18.5599   17.3514   23.0012 H   0  0  0  0  0  0  0  0  0  0  0  0
  1  2  1  0  0  0  0
  1  3  2  0  0  0  0
  1  4  1  0  0  0  0
  4  5  1  0  0  0  0
  4  6  2  0  0  0  0
  6  7  1  0  0  0  0
  6  8  1  0  0  0  0
  8  9  1  0  0  0  0
  8 10  1  0  0  0  0
  8 11  1  0  0  0  0
 11 12  1  0  0  0  0
 11 13  1  0  0  0  0
 11 14  1  0  0  0  0
 14 15  1  0  0  0  0
 14 16  1  0  0  0  0
 14 17  1  0  0  0  0
M  END
> <VConfSearch Rank>
252

> <Conf_Id>
45

> <Delta U+W>
0.562

> <U+W>
-52.846

> <U>
10.243

> <W>
-63.089

> <W(PB)>
-65.116

> <W(SA)>
2.026

> <Valence>
2.822

> <Coulomb>
6.637

> <VdW>
0.785

> <VdW6>
-5.216

> <VdW12>
6.001

> <Bond>
0.080

> <Angle>
2.678

> <Pdih>
0.064

> <Idih>
0.000

> <Tether>
0.000

$$$$
VeraChem MOL file


 17 16  0  0  0  0  0  0  0  0999 V2000     
   21.5319   21.1091   19.6674 C   0  0  0  0  0  0  0  0  0  0  0  0
   21.0492   21.7794   18.7755 O   0  5  0  0  0  0  0  0  0  0  0  0
   22.7233   20.8761   19.7480 O   0  0  0  0  0  0  0  0  0  0  0  0
   20.6049   20.5616   20.6947 C   0  0  0  0  0  0  0  0  0  0  0  0
   19.5534   20.8070   20.5641 H   0  0  0  0  0  0  0  0  0  0  0  0
   21.0025   19.8003   21.7394 C   0  0  0  0  0  0  0  0  0  0  0  0
   22.0532   19.5465   21.8784 H   0  0  0  0  0  0  0  0  0  0  0  0
   20.0529   19.2456   22.7786 C   0  0  0  0  0  0  0  0  0  0  0  0
   19.2743   19.9855   23.0090 H   0  0  0  0  0  0  0  0  0  0  0  0
   20.5978   19.0636   23.7148 H   0  0  0  0  0  0  0  0  0  0  0  0
   19.3988   17.9338   22.2988 C   0  0  0  0  0  0  0  0  0  0  0  0
   18.8497   18.1151   21.3643 H   0  0  0  0  0  0  0  0  0  0  0  0
   20.1794   17.1947   22.0710 H   0  0  0  0  0  0  0  0  0  0  0  0
   18.4365   17.3568   23.3564 C   0  0  0  0  0  0  0  0  0  0  0  0
   18.9672   17.1363   24.2919 H   0  0  0  0  0  0  0  0  0  0  0  0
   17.6277   18.0650   23.5796 H   0  0  0  0  0  0  0  0  0  0  0  0
   17.9811   16.4247   22.9974 H   0  0  0  0  0  0  0  0  0  0  0  0
  1  2  1  0  0  0  0
  1  3  2  0  0  0  0
  1  4  1  0  0  0  0
  4  5  1  0  0  0  0
  4  6  2  0  0  0  0
  6  7  1  0  0  0  0
  6  8  1  0  0  0  0
  8  9  1  0  0  0  0
  8 10  1  0  0  0  0
  8 11  1  0  0  0  0
 11 12  1  0  0  0  0
 11 13  1  0  0  0  0
 11 14  1  0  0  0  0
 14 15  1  0  0  0  0
 14 16  1  0  0  0  0
 14 17  1  0  0  0  0
M  END
> <VConfSearch Rank>
253

> <Conf_Id>
36

> <Delta U+W>
0.000

> <U+W>
-53.409

> <U>
9.048

> <W>
-62.457

> <W(PB)>
-64.540

> <W(SA)>
2.084

> <Valence>
2.652

> <Coulomb>
5.578

> <VdW>
0.818

> <VdW6>
-4.534

> <VdW12>
5.352

> <Bond>
0.063

> <Angle>
2.579

> <Pdih>
0.010

> <Idih>
0.000

> <Tether>
0.000

$$$$
VeraChem MOL file


 17 16  0  0  0  0  0  0  0  0999 V2000     
   20.1293   17.7386   25.0005 C   0  0  0  0  0  0  0  0  0  0  0  0
   20.0548   18.6592   25.7926 O   0  5  0  0  0  0  0  0  0  0  0  0
   20.4102   16.6034   25.3325 O   0  0  0  0  0  0  0  0  0  0  0  0
   19.8680   17.9881   23.5571 C   0  0  0  0  0  0  0  0  0  0  0  0
   19.9510   17.1229   22.9032 H   0  0  0  0  0  0  0  0  0  0  0  0
   19.5468   19.1990   23.0475 C   0  0  0  0  0  0  0  0  0  0  0  0
   19.4631   20.0729   23.6932 H   0  0  0  0  0  0  0  0  0  0  0  0
   19.2844   19.4446   21.5778 C   0  0  0  0  0  0  0  0  0  0  0  0
   18.6394   20.3259   21.4616 H   0  0  0  0  0  0  0  0  0  0  0  0
   18.7349   18.5962   21.1475 H   0  0  0  0  0  0  0  0  0  0  0  0
   20.5991   19.6612   20.8008 C   0  0  0  0  0  0  0  0  0  0  0  0
   21.1458   20.5115   21.2316 H   0  0  0  0  0  0  0  0  0  0  0  0
   21.2440   18.7785   20.9126 H   0  0  0  0  0  0  0  0  0  0  0  0
   20.3396   19.9214   19.3033 C   0  0  0  0  0  0  0  0  0  0  0  0
   19.7224   20.8182   19.1614 H   0  0  0  0  0  0  0  0  0  0  0  0
   21.2857   20.0730   18.7675 H   0  0  0  0  0  0  0  0  0  0  0  0
   19.8209   19.0713   18.8410 H   0  0  0  0  0  0  0  0  0  0  0  0
  1  2  1  0  0  0  0
  1  3  2  0  0  0  0
  1  4  1  0  0  0  0
  4  5  1  0  0  0  0
  4  6  2  0  0  0  0
  6  7  1  0  0  0  0
  6  8  1  0  0  0  0
  8  9  1  0  0  0  0
  8 10  1  0  0  0  0
  8 11  1  0  0  0  0
 11 12  1  0  0  0  0
 11 13  1  0  0  0  0
 11 14  1  0  0  0  0
 14 15  1  0  0  0  0
 14 16  1  0  0  0  0
 14 17  1  0  0  0  0
M  END
> <VConfSearch Rank>
254

> <Conf_Id>
1

> <Delta U+W>
0.030

> <U+W>
-53.378

> <U>
9.048

> <W>
-62.426

> <W(PB)>
-64.506

> <W(SA)>
2.080

> <Valence>
2.652

> <Coulomb>
5.578

> <VdW>
0.818

> <VdW6>
-4.535

> <VdW12>
5.352

> <Bond>
0.063

> <Angle>
2.579

> <Pdih>
0.010

> <Idih>
0.000

> <Tether>
0.000

$$$$
VeraChem MOL file


 17 16  0  0  0  0  0  0  0  0999 V2000     
   21.8362   16.6859   22.6982 C   0  0  0  0  0  0  0  0  0  0  0  0
   21.4305   15.8780   21.8839 O   0  5  0  0  0  0  0  0  0  0  0  0
   22.8897   16.5539   23.2902 O   0  0  0  0  0  0  0  0  0  0  0  0
   21.0237   17.8948   23.0023 C   0  0  0  0  0  0  0  0  0  0  0  0
   21.4430   18.5755   23.7396 H   0  0  0  0  0  0  0  0  0  0  0  0
   19.8349   18.1701   22.4191 C   0  0  0  0  0  0  0  0  0  0  0  0
   19.4072   17.4967   21.6767 H   0  0  0  0  0  0  0  0  0  0  0  0
   19.0153   19.4046   22.7309 C   0  0  0  0  0  0  0  0  0  0  0  0
   19.0441   19.6028   23.8109 H   0  0  0  0  0  0  0  0  0  0  0  0
   17.9610   19.2253   22.4805 H   0  0  0  0  0  0  0  0  0  0  0  0
   19.5208   20.6523   21.9737 C   0  0  0  0  0  0  0  0  0  0  0  0
   18.9600   21.5325   22.3170 H   0  0  0  0  0  0  0  0  0  0  0  0
   20.5752   20.8350   22.2231 H   0  0  0  0  0  0  0  0  0  0  0  0
   19.3640   20.5195   20.4438 C   0  0  0  0  0  0  0  0  0  0  0  0
   18.3147   20.3487   20.1699 H   0  0  0  0  0  0  0  0  0  0  0  0
   19.7010   21.4349   19.9405 H   0  0  0  0  0  0  0  0  0  0  0  0
   19.9602   19.6833   20.0556 H   0  0  0  0  0  0  0  0  0  0  0  0
  1  2  1  0  0  0  0
  1  3  2  0  0  0  0
  1  4  1  0  0  0  0
  4  5  1  0  0  0  0
  4  6  2  0  0  0  0
  6  7  1  0  0  0  0
  6  8  1  0  0  0  0
  8  9  1  0  0  0  0
  8 10  1  0  0  0  0
  8 11  1  0  0  0  0
 11 12  1  0  0  0  0
 11 13  1  0  0  0  0
 11 14  1  0  0  0  0
 14 15  1  0  0  0  0
 14 16  1  0  0  0  0
 14 17  1  0  0  0  0
M  END
> <VConfSearch Rank>
255

> <Conf_Id>
3

> <Delta U+W>
0.531

> <U+W>
-52.878

> <U>
10.067

> <W>
-62.945

> <W(PB)>
-64.982

> <W(SA)>
2.037

> <Valence>
2.779

> <Coulomb>
6.474

> <VdW>
0.815

> <VdW6>
-5.088

> <VdW12>
5.902

> <Bond>
0.078

> <Angle>
2.651

> <Pdih>
0.050

> <Idih>
0.000

> <Tether>
0.000

$$$$
VeraChem MOL file


 17 16  0  0  0  0  0  0  0  0999 V2000     
   22.7773   17.9921   21.8527 C   0  0  0  0  0  0  0  0  0  0  0  0
   23.6801   18.3141   21.1050 O   0  5  0  0  0  0  0  0  0  0  0  0
   22.7357   16.9117   22.4109 O   0  0  0  0  0  0  0  0  0  0  0  0
   21.6890   18.9806   22.0819 C   0  0  0  0  0  0  0  0  0  0  0  0
   21.7880   19.9255   21.5528 H   0  0  0  0  0  0  0  0  0  0  0  0
   20.6240   18.7562   22.8851 C   0  0  0  0  0  0  0  0  0  0  0  0
   20.5152   17.8109   23.4161 H   0  0  0  0  0  0  0  0  0  0  0  0
   19.5163   19.7635   23.1142 C   0  0  0  0  0  0  0  0  0  0  0  0
   19.8382   20.7683   22.8083 H   0  0  0  0  0  0  0  0  0  0  0  0
   19.3048   19.8251   24.1901 H   0  0  0  0  0  0  0  0  0  0  0  0
   18.2172   19.3857   22.3694 C   0  0  0  0  0  0  0  0  0  0  0  0
   17.8958   18.3797   22.6729 H   0  0  0  0  0  0  0  0  0  0  0  0
   17.4170   20.0752   22.6719 H   0  0  0  0  0  0  0  0  0  0  0  0
   18.3749   19.4407   20.8348 C   0  0  0  0  0  0  0  0  0  0  0  0
   19.1230   18.7165   20.4873 H   0  0  0  0  0  0  0  0  0  0  0  0
   17.4237   19.2052   20.3403 H   0  0  0  0  0  0  0  0  0  0  0  0
   18.6886   20.4407   20.5081 H   0  0  0  0  0  0  0  0  0  0  0  0
  1  2  1  0  0  0  0
  1  3  2  0  0  0  0
  1  4  1  0  0  0  0
  4  5  1  0  0  0  0
  4  6  2  0  0  0  0
  6  7  1  0  0  0  0
  6  8  1  0  0  0  0
  8  9  1  0  0  0  0
  8 10  1  0  0  0  0
  8 11  1  0  0  0  0
 11 12  1  0  0  0  0
 11 13  1  0  0  0  0
 11 14  1  0  0  0  0
 14 15  1  0  0  0  0
 14 16  1  0  0  0  0
 14 17  1  0  0  0  0
M  END
> <VConfSearch Rank>
256

> <Conf_Id>
45

> <Delta U+W>
0.562

> <U+W>
-52.846

> <U>
10.243

> <W>
-63.089

> <W(PB)>
-65.116

> <W(SA)>
2.026

> <Valence>
2.822

> <Coulomb>
6.637

> <VdW>
0.785

> <VdW6>
-5.216

> <VdW12>
6.001

> <Bond>
0.080

> <Angle>
2.678

> <Pdih>
0.064

> <Idih>
0.000

> <Tether>
0.000

$$$$
VeraChem MOL file


 17 16  0  0  0  0  0  0  0  0999 V2000     
   20.8936   16.4718   23.8019 C   0  0  0  0  0  0  0  0  0  0  0  0
   21.8189   16.3631   24.5828 O   0  5  0  0  0  0  0  0  0  0  0  0
   20.2501   15.5191   23.4034 O   0  0  0  0  0  0  0  0  0  0  0  0
   20.5510   17.8401   23.3281 C   0  0  0  0  0  0  0  0  0  0  0  0
   21.1649   18.6465   23.7226 H   0  0  0  0  0  0  0  0  0  0  0  0
   19.5491   18.1083   22.4601 C   0  0  0  0  0  0  0  0  0  0  0  0
   18.9294   17.3076   22.0568 H   0  0  0  0  0  0  0  0  0  0  0  0
   19.2086   19.5026   21.9815 C   0  0  0  0  0  0  0  0  0  0  0  0
   19.3166   20.2198   22.8067 H   0  0  0  0  0  0  0  0  0  0  0  0
   18.1552   19.5384   21.6724 H   0  0  0  0  0  0  0  0  0  0  0  0
   20.1073   19.9270   20.8020 C   0  0  0  0  0  0  0  0  0  0  0  0
   21.1614   19.8958   21.1109 H   0  0  0  0  0  0  0  0  0  0  0  0
   19.9959   19.2094   19.9773 H   0  0  0  0  0  0  0  0  0  0  0  0
   19.7601   21.3437   20.3021 C   0  0  0  0  0  0  0  0  0  0  0  0
   18.7191   21.3945   19.9569 H   0  0  0  0  0  0  0  0  0  0  0  0
   19.8934   22.0856   21.1004 H   0  0  0  0  0  0  0  0  0  0  0  0
   20.4093   21.6279   19.4637 H   0  0  0  0  0  0  0  0  0  0  0  0
  1  2  1  0  0  0  0
  1  3  2  0  0  0  0
  1  4  1  0  0  0  0
  4  5  1  0  0  0  0
  4  6  2  0  0  0  0
  6  7  1  0  0  0  0
  6  8  1  0  0  0  0
  8  9  1  0  0  0  0
  8 10  1  0  0  0  0
  8 11  1  0  0  0  0
 11 12  1  0  0  0  0
 11 13  1  0  0  0  0
 11 14  1  0  0  0  0
 14 15  1  0  0  0  0
 14 16  1  0  0  0  0
 14 17  1  0  0  0  0
M  END
> <VConfSearch Rank>
257

> <Conf_Id>
36

> <Delta U+W>
0.000

> <U+W>
-53.409

> <U>
9.048

> <W>
-62.457

> <W(PB)>
-64.540

> <W(SA)>
2.084

> <Valence>
2.652

> <Coulomb>
5.578

> <VdW>
0.818

> <VdW6>
-4.534

> <VdW12>
5.352

> <Bond>
0.063

> <Angle>
2.579

> <Pdih>
0.010

> <Idih>
0.000

> <Tether>
0.000

$$$$
VeraChem MOL file


 17 16  0  0  0  0  0  0  0  0999 V2000     
   17.5882   16.8757   22.6718 C   0  0  0  0  0  0  0  0  0  0  0  0
   17.9335   15.8040   22.2107 O   0  5  0  0  0  0  0  0  0  0  0  0
   16.4732   17.0760   23.1128 O   0  0  0  0  0  0  0  0  0  0  0  0
   18.5558   18.0055   22.7098 C   0  0  0  0  0  0  0  0  0  0  0  0
   18.1836   18.9351   23.1343 H   0  0  0  0  0  0  0  0  0  0  0  0
   19.8265   17.9252   22.2537 C   0  0  0  0  0  0  0  0  0  0  0  0
   20.2090   16.9994   21.8245 H   0  0  0  0  0  0  0  0  0  0  0  0
   20.8037   19.0797   22.2943 C   0  0  0  0  0  0  0  0  0  0  0  0
   21.8312   18.6917   22.3014 H   0  0  0  0  0  0  0  0  0  0  0  0
   20.6771   19.6462   23.2270 H   0  0  0  0  0  0  0  0  0  0  0  0
   20.6148   20.0185   21.0853 C   0  0  0  0  0  0  0  0  0  0  0  0
   20.7440   19.4501   20.1537 H   0  0  0  0  0  0  0  0  0  0  0  0
   19.5884   20.4108   21.0790 H   0  0  0  0  0  0  0  0  0  0  0  0
   21.6135   21.1930   21.1144 C   0  0  0  0  0  0  0  0  0  0  0  0
   22.6490   20.8290   21.0893 H   0  0  0  0  0  0  0  0  0  0  0  0
   21.4640   21.8494   20.2472 H   0  0  0  0  0  0  0  0  0  0  0  0
   21.4839   21.7964   22.0224 H   0  0  0  0  0  0  0  0  0  0  0  0
  1  2  1  0  0  0  0
  1  3  2  0  0  0  0
  1  4  1  0  0  0  0
  4  5  1  0  0  0  0
  4  6  2  0  0  0  0
  6  7  1  0  0  0  0
  6  8  1  0  0  0  0
  8  9  1  0  0  0  0
  8 10  1  0  0  0  0
  8 11  1  0  0  0  0
 11 12  1  0  0  0  0
 11 13  1  0  0  0  0
 11 14  1  0  0  0  0
 14 15  1  0  0  0  0
 14 16  1  0  0  0  0
 14 17  1  0  0  0  0
M  END
> <VConfSearch Rank>
258

> <Conf_Id>
1

> <Delta U+W>
0.030

> <U+W>
-53.378

> <U>
9.048

> <W>
-62.426

> <W(PB)>
-64.506

> <W(SA)>
2.080

> <Valence>
2.652

> <Coulomb>
5.578

> <VdW>
0.818

> <VdW6>
-4.535

> <VdW12>
5.352

> <Bond>
0.063

> <Angle>
2.579

> <Pdih>
0.010

> <Idih>
0.000

> <Tether>
0.000

$$$$
VeraChem MOL file


 17 16  0  0  0  0  0  0  0  0999 V2000     
   18.9856   17.7431   24.6250 C   0  0  0  0  0  0  0  0  0  0  0  0
   18.9044   16.5880   24.2513 O   0  5  0  0  0  0  0  0  0  0  0  0
   18.9633   18.0601   25.7983 O   0  0  0  0  0  0  0  0  0  0  0  0
   19.1149   18.8334   23.6208 C   0  0  0  0  0  0  0  0  0  0  0  0
   19.1820   19.8423   24.0214 H   0  0  0  0  0  0  0  0  0  0  0  0
   19.1542   18.6268   22.2848 C   0  0  0  0  0  0  0  0  0  0  0  0
   19.0912   17.6199   21.8728 H   0  0  0  0  0  0  0  0  0  0  0  0
   19.2899   19.7414   21.2688 C   0  0  0  0  0  0  0  0  0  0  0  0
   18.6713   20.5960   21.5747 H   0  0  0  0  0  0  0  0  0  0  0  0
   18.8968   19.4110   20.2980 H   0  0  0  0  0  0  0  0  0  0  0  0
   20.7524   20.2092   21.1015 C   0  0  0  0  0  0  0  0  0  0  0  0
   20.7760   21.0835   20.4365 H   0  0  0  0  0  0  0  0  0  0  0  0
   21.1481   20.5417   22.0712 H   0  0  0  0  0  0  0  0  0  0  0  0
   21.6628   19.1073   20.5187 C   0  0  0  0  0  0  0  0  0  0  0  0
   21.2930   18.7681   19.5423 H   0  0  0  0  0  0  0  0  0  0  0  0
   22.6849   19.4836   20.3820 H   0  0  0  0  0  0  0  0  0  0  0  0
   21.7109   18.2383   21.1878 H   0  0  0  0  0  0  0  0  0  0  0  0
  1  2  1  0  0  0  0
  1  3  2  0  0  0  0
  1  4  1  0  0  0  0
  4  5  1  0  0  0  0
  4  6  2  0  0  0  0
  6  7  1  0  0  0  0
  6  8  1  0  0  0  0
  8  9  1  0  0  0  0
  8 10  1  0  0  0  0
  8 11  1  0  0  0  0
 11 12  1  0  0  0  0
 11 13  1  0  0  0  0
 11 14  1  0  0  0  0
 14 15  1  0  0  0  0
 14 16  1  0  0  0  0
 14 17  1  0  0  0  0
M  END
> <VConfSearch Rank>
259

> <Conf_Id>
3

> <Delta U+W>
0.531

> <U+W>
-52.878

> <U>
10.067

> <W>
-62.945

> <W(PB)>
-64.982

> <W(SA)>
2.037

> <Valence>
2.779

> <Coulomb>
6.474

> <VdW>
0.815

> <VdW6>
-5.088

> <VdW12>
5.902

> <Bond>
0.078

> <Angle>
2.651

> <Pdih>
0.050

> <Idih>
0.000

> <Tether>
0.000

$$$$
VeraChem MOL file


 17 16  0  0  0  0  0  0  0  0999 V2000     
   20.3369   17.5621   24.6505 C   0  0  0  0  0  0  0  0  0  0  0  0
   20.6040   16.3884   24.8208 O   0  5  0  0  0  0  0  0  0  0  0  0
   19.8144   18.2513   25.5063 O   0  0  0  0  0  0  0  0  0  0  0  0
   20.6763   18.1598   23.3308 C   0  0  0  0  0  0  0  0  0  0  0  0
   21.1411   17.4888   22.6121 H   0  0  0  0  0  0  0  0  0  0  0  0
   20.4344   19.4496   23.0031 C   0  0  0  0  0  0  0  0  0  0  0  0
   19.9657   20.1277   23.7159 H   0  0  0  0  0  0  0  0  0  0  0  0
   20.7785   20.0545   21.6577 C   0  0  0  0  0  0  0  0  0  0  0  0
   21.5026   19.4237   21.1243 H   0  0  0  0  0  0  0  0  0  0  0  0
   21.2745   21.0215   21.8159 H   0  0  0  0  0  0  0  0  0  0  0  0
   19.5295   20.2706   20.7754 C   0  0  0  0  0  0  0  0  0  0  0  0
   18.8036   20.8994   21.3094 H   0  0  0  0  0  0  0  0  0  0  0  0
   19.8202   20.8247   19.8723 H   0  0  0  0  0  0  0  0  0  0  0  0
   18.8606   18.9436   20.3577 C   0  0  0  0  0  0  0  0  0  0  0  0
   18.4979   18.3899   21.2335 H   0  0  0  0  0  0  0  0  0  0  0  0
   18.0019   19.1341   19.7011 H   0  0  0  0  0  0  0  0  0  0  0  0
   19.5668   18.3018   19.8151 H   0  0  0  0  0  0  0  0  0  0  0  0
  1  2  1  0  0  0  0
  1  3  2  0  0  0  0
  1  4  1  0  0  0  0
  4  5  1  0  0  0  0
  4  6  2  0  0  0  0
  6  7  1  0  0  0  0
  6  8  1  0  0  0  0
  8  9  1  0  0  0  0
  8 10  1  0  0  0  0
  8 11  1  0  0  0  0
 11 12  1  0  0  0  0
 11 13  1  0  0  0  0
 11 14  1  0  0  0  0
 14 15  1  0  0  0  0
 14 16  1  0  0  0  0
 14 17  1  0  0  0  0
M  END
> <VConfSearch Rank>
260

> <Conf_Id>
45

> <Delta U+W>
0.562

> <U+W>
-52.846

> <U>
10.243

> <W>
-63.089

> <W(PB)>
-65.116

> <W(SA)>
2.026

> <Valence>
2.822

> <Coulomb>
6.637

> <VdW>
0.785

> <VdW6>
-5.216

> <VdW12>
6.001

> <Bond>
0.080

> <Angle>
2.678

> <Pdih>
0.064

> <Idih>
0.000

> <Tether>
0.000

$$$$
VeraChem MOL file


 17 16  0  0  0  0  0  0  0  0999 V2000     
   20.2410   17.2835   24.7335 C   0  0  0  0  0  0  0  0  0  0  0  0
   19.5222   17.2784   25.7137 O   0  5  0  0  0  0  0  0  0  0  0  0
   21.3373   16.7559   24.7154 O   0  0  0  0  0  0  0  0  0  0  0  0
   19.7357   17.9700   23.5138 C   0  0  0  0  0  0  0  0  0  0  0  0
   18.7493   18.4204   23.5970 H   0  0  0  0  0  0  0  0  0  0  0  0
   20.4277   18.0541   22.3549 C   0  0  0  0  0  0  0  0  0  0  0  0
   21.4178   17.6084   22.2613 H   0  0  0  0  0  0  0  0  0  0  0  0
   19.9074   18.7560   21.1196 C   0  0  0  0  0  0  0  0  0  0  0  0
   18.8302   18.5715   21.0085 H   0  0  0  0  0  0  0  0  0  0  0  0
   20.3901   18.3358   20.2270 H   0  0  0  0  0  0  0  0  0  0  0  0
   20.1716   20.2743   21.1829 C   0  0  0  0  0  0  0  0  0  0  0  0
   19.6857   20.6970   22.0733 H   0  0  0  0  0  0  0  0  0  0  0  0
   21.2498   20.4564   21.2920 H   0  0  0  0  0  0  0  0  0  0  0  0
   19.6526   20.9960   19.9230 C   0  0  0  0  0  0  0  0  0  0  0  0
   20.1462   20.6139   19.0198 H   0  0  0  0  0  0  0  0  0  0  0  0
   18.5698   20.8553   19.8077 H   0  0  0  0  0  0  0  0  0  0  0  0
   19.8493   22.0742   19.9862 H   0  0  0  0  0  0  0  0  0  0  0  0
  1  2  1  0  0  0  0
  1  3  2  0  0  0  0
  1  4  1  0  0  0  0
  4  5  1  0  0  0  0
  4  6  2  0  0  0  0
  6  7  1  0  0  0  0
  6  8  1  0  0  0  0
  8  9  1  0  0  0  0
  8 10  1  0  0  0  0
  8 11  1  0  0  0  0
 11 12  1  0  0  0  0
 11 13  1  0  0  0  0
 11 14  1  0  0  0  0
 14 15  1  0  0  0  0
 14 16  1  0  0  0  0
 14 17  1  0  0  0  0
M  END
> <VConfSearch Rank>
261

> <Conf_Id>
36

> <Delta U+W>
0.000

> <U+W>
-53.409

> <U>
9.048

> <W>
-62.457

> <W(PB)>
-64.540

> <W(SA)>
2.084

> <Valence>
2.652

> <Coulomb>
5.578

> <VdW>
0.818

> <VdW6>
-4.534

> <VdW12>
5.352

> <Bond>
0.063

> <Angle>
2.579

> <Pdih>
0.010

> <Idih>
0.000

> <Tether>
0.000

$$$$
VeraChem MOL file


 17 16  0  0  0  0  0  0  0  0999 V2000     
   20.8478   19.4017   25.1674 C   0  0  0  0  0  0  0  0  0  0  0  0
   20.3995   18.4263   25.7403 O   0  5  0  0  0  0  0  0  0  0  0  0
   21.3029   20.3622   25.7573 O   0  0  0  0  0  0  0  0  0  0  0  0
   20.8514   19.4432   23.6800 C   0  0  0  0  0  0  0  0  0  0  0  0
   21.2661   20.3430   23.2314 H   0  0  0  0  0  0  0  0  0  0  0  0
   20.3768   18.4479   22.8970 C   0  0  0  0  0  0  0  0  0  0  0  0
   19.9572   17.5429   23.3361 H   0  0  0  0  0  0  0  0  0  0  0  0
   20.3824   18.4988   21.3849 C   0  0  0  0  0  0  0  0  0  0  0  0
   20.3798   17.4769   20.9824 H   0  0  0  0  0  0  0  0  0  0  0  0
   21.3073   18.9726   21.0286 H   0  0  0  0  0  0  0  0  0  0  0  0
   19.1609   19.2697   20.8440 C   0  0  0  0  0  0  0  0  0  0  0  0
   18.2371   18.7927   21.2000 H   0  0  0  0  0  0  0  0  0  0  0  0
   19.1642   20.2938   21.2426 H   0  0  0  0  0  0  0  0  0  0  0  0
   19.1544   19.3182   19.3029 C   0  0  0  0  0  0  0  0  0  0  0  0
   19.1191   18.3065   18.8780 H   0  0  0  0  0  0  0  0  0  0  0  0
   18.2788   19.8701   18.9370 H   0  0  0  0  0  0  0  0  0  0  0  0
   20.0540   19.8191   18.9219 H   0  0  0  0  0  0  0  0  0  0  0  0
  1  2  1  0  0  0  0
  1  3  2  0  0  0  0
  1  4  1  0  0  0  0
  4  5  1  0  0  0  0
  4  6  2  0  0  0  0
  6  7  1  0  0  0  0
  6  8  1  0  0  0  0
  8  9  1  0  0  0  0
  8 10  1  0  0  0  0
  8 11  1  0  0  0  0
 11 12  1  0  0  0  0
 11 13  1  0  0  0  0
 11 14  1  0  0  0  0
 14 15  1  0  0  0  0
 14 16  1  0  0  0  0
 14 17  1  0  0  0  0
M  END
> <VConfSearch Rank>
262

> <Conf_Id>
1

> <Delta U+W>
0.030

> <U+W>
-53.378

> <U>
9.048

> <W>
-62.426

> <W(PB)>
-64.506

> <W(SA)>
2.080

> <Valence>
2.652

> <Coulomb>
5.578

> <VdW>
0.818

> <VdW6>
-4.535

> <VdW12>
5.352

> <Bond>
0.063

> <Angle>
2.579

> <Pdih>
0.010

> <Idih>
0.000

> <Tether>
0.000

$$$$
VeraChem MOL file


 17 16  0  0  0  0  0  0  0  0999 V2000     
   19.8443   17.0421   24.3494 C   0  0  0  0  0  0  0  0  0  0  0  0
   18.6374   16.9201   24.4439 O   0  5  0  0  0  0  0  0  0  0  0  0
   20.6279   16.2590   24.8498 O   0  0  0  0  0  0  0  0  0  0  0  0
   20.4101   18.1940   23.5963 C   0  0  0  0  0  0  0  0  0  0  0  0
   21.4956   18.2444   23.5509 H   0  0  0  0  0  0  0  0  0  0  0  0
   19.6582   19.1396   22.9885 C   0  0  0  0  0  0  0  0  0  0  0  0
   18.5698   19.0970   23.0248 H   0  0  0  0  0  0  0  0  0  0  0  0
   20.2412   20.3071   22.2204 C   0  0  0  0  0  0  0  0  0  0  0  0
   21.1143   20.7020   22.7574 H   0  0  0  0  0  0  0  0  0  0  0  0
   19.5116   21.1270   22.1777 H   0  0  0  0  0  0  0  0  0  0  0  0
   20.6628   19.9158   20.7870 C   0  0  0  0  0  0  0  0  0  0  0  0
   21.1722   20.7683   20.3171 H   0  0  0  0  0  0  0  0  0  0  0  0
   21.3939   19.0964   20.8266 H   0  0  0  0  0  0  0  0  0  0  0  0
   19.4624   19.4996   19.9103 C   0  0  0  0  0  0  0  0  0  0  0  0
   18.7237   20.3091   19.8461 H   0  0  0  0  0  0  0  0  0  0  0  0
   19.7933   19.2610   18.8912 H   0  0  0  0  0  0  0  0  0  0  0  0
   18.9630   18.6113   20.3185 H   0  0  0  0  0  0  0  0  0  0  0  0
  1  2  1  0  0  0  0
  1  3  2  0  0  0  0
  1  4  1  0  0  0  0
  4  5  1  0  0  0  0
  4  6  2  0  0  0  0
  6  7  1  0  0  0  0
  6  8  1  0  0  0  0
  8  9  1  0  0  0  0
  8 10  1  0  0  0  0
  8 11  1  0  0  0  0
 11 12  1  0  0  0  0
 11 13  1  0  0  0  0
 11 14  1  0  0  0  0
 14 15  1  0  0  0  0
 14 16  1  0  0  0  0
 14 17  1  0  0  0  0
M  END
> <VConfSearch Rank>
263

> <Conf_Id>
3

> <Delta U+W>
0.531

> <U+W>
-52.878

> <U>
10.067

> <W>
-62.945

> <W(PB)>
-64.982

> <W(SA)>
2.037

> <Valence>
2.779

> <Coulomb>
6.474

> <VdW>
0.815

> <VdW6>
-5.088

> <VdW12>
5.902

> <Bond>
0.078

> <Angle>
2.651

> <Pdih>
0.050

> <Idih>
0.000

> <Tether>
0.000

$$$$
VeraChem MOL file


 17 16  0  0  0  0  0  0  0  0999 V2000     
   21.5783   20.5701   19.9810 C   0  0  0  0  0  0  0  0  0  0  0  0
   21.1947   21.2271   19.0329 O   0  5  0  0  0  0  0  0  0  0  0  0
   22.6963   20.0943   20.0457 O   0  0  0  0  0  0  0  0  0  0  0  0
   20.6217   20.3550   21.1003 C   0  0  0  0  0  0  0  0  0  0  0  0
   19.6403   20.8074   20.9784 H   0  0  0  0  0  0  0  0  0  0  0  0
   20.9122   19.6442   22.2138 C   0  0  0  0  0  0  0  0  0  0  0  0
   21.8919   19.1846   22.3424 H   0  0  0  0  0  0  0  0  0  0  0  0
   19.9353   19.4247   23.3503 C   0  0  0  0  0  0  0  0  0  0  0  0
   19.1109   20.1488   23.2966 H   0  0  0  0  0  0  0  0  0  0  0  0
   20.4462   19.6142   24.3038 H   0  0  0  0  0  0  0  0  0  0  0  0
   19.3652   17.9894   23.3642 C   0  0  0  0  0  0  0  0  0  0  0  0
   20.1893   17.2644   23.4153 H   0  0  0  0  0  0  0  0  0  0  0  0
   18.7675   17.8499   24.2756 H   0  0  0  0  0  0  0  0  0  0  0  0
   18.4832   17.6887   22.1336 C   0  0  0  0  0  0  0  0  0  0  0  0
   19.0637   17.7553   21.2043 H   0  0  0  0  0  0  0  0  0  0  0  0
   18.0646   16.6760   22.1968 H   0  0  0  0  0  0  0  0  0  0  0  0
   17.6476   18.3976   22.0669 H   0  0  0  0  0  0  0  0  0  0  0  0
  1  2  1  0  0  0  0
  1  3  2  0  0  0  0
  1  4  1  0  0  0  0
  4  5  1  0  0  0  0
  4  6  2  0  0  0  0
  6  7  1  0  0  0  0
  6  8  1  0  0  0  0
  8  9  1  0  0  0  0
  8 10  1  0  0  0  0
  8 11  1  0  0  0  0
 11 12  1  0  0  0  0
 11 13  1  0  0  0  0
 11 14  1  0  0  0  0
 14 15  1  0  0  0  0
 14 16  1  0  0  0  0
 14 17  1  0  0  0  0
M  END
> <VConfSearch Rank>
264

> <Conf_Id>
45

> <Delta U+W>
0.562

> <U+W>
-52.846

> <U>
10.243

> <W>
-63.089

> <W(PB)>
-65.116

> <W(SA)>
2.026

> <Valence>
2.822

> <Coulomb>
6.637

> <VdW>
0.785

> <VdW6>
-5.216

> <VdW12>
6.001

> <Bond>
0.080

> <Angle>
2.678

> <Pdih>
0.064

> <Idih>
0.000

> <Tether>
0.000

$$$$
VeraChem MOL file


 17 16  0  0  0  0  0  0  0  0999 V2000     
   19.9404   16.6995   19.5624 C   0  0  0  0  0  0  0  0  0  0  0  0
   20.6492   15.7181   19.4521 O   0  5  0  0  0  0  0  0  0  0  0  0
   19.2093   17.0900   18.6717 O   0  0  0  0  0  0  0  0  0  0  0  0
   19.9852   17.4383   20.8533 C   0  0  0  0  0  0  0  0  0  0  0  0
   20.6590   17.0367   21.6068 H   0  0  0  0  0  0  0  0  0  0  0  0
   19.2529   18.5449   21.1142 C   0  0  0  0  0  0  0  0  0  0  0  0
   18.5765   18.9571   20.3656 H   0  0  0  0  0  0  0  0  0  0  0  0
   19.3059   19.2916   22.4291 C   0  0  0  0  0  0  0  0  0  0  0  0
   19.3907   18.5802   23.2619 H   0  0  0  0  0  0  0  0  0  0  0  0
   18.3653   19.8384   22.5798 H   0  0  0  0  0  0  0  0  0  0  0  0
   20.4893   20.2802   22.4665 C   0  0  0  0  0  0  0  0  0  0  0  0
   21.4316   19.7342   22.3201 H   0  0  0  0  0  0  0  0  0  0  0  0
   20.4011   20.9920   21.6339 H   0  0  0  0  0  0  0  0  0  0  0  0
   20.5448   21.0523   23.8001 C   0  0  0  0  0  0  0  0  0  0  0  0
   19.6263   21.6331   23.9564 H   0  0  0  0  0  0  0  0  0  0  0  0
   20.6641   20.3645   24.6475 H   0  0  0  0  0  0  0  0  0  0  0  0
   21.3923   21.7500   23.8081 H   0  0  0  0  0  0  0  0  0  0  0  0
  1  2  1  0  0  0  0
  1  3  2  0  0  0  0
  1  4  1  0  0  0  0
  4  5  1  0  0  0  0
  4  6  2  0  0  0  0
  6  7  1  0  0  0  0
  6  8  1  0  0  0  0
  8  9  1  0  0  0  0
  8 10  1  0  0  0  0
  8 11  1  0  0  0  0
 11 12  1  0  0  0  0
 11 13  1  0  0  0  0
 11 14  1  0  0  0  0
 14 15  1  0  0  0  0
 14 16  1  0  0  0  0
 14 17  1  0  0  0  0
M  END
> <VConfSearch Rank>
265

> <Conf_Id>
36

> <Delta U+W>
0.000

> <U+W>
-53.409

> <U>
9.048

> <W>
-62.457

> <W(PB)>
-64.540

> <W(SA)>
2.084

> <Valence>
2.652

> <Coulomb>
5.578

> <VdW>
0.818

> <VdW6>
-4.534

> <VdW12>
5.352

> <Bond>
0.063

> <Angle>
2.579

> <Pdih>
0.010

> <Idih>
0.000

> <Tether>
0.000

$$$$
VeraChem MOL file


 17 16  0  0  0  0  0  0  0  0999 V2000     
   18.8507   21.2843   19.6281 C   0  0  0  0  0  0  0  0  0  0  0  0
   17.8005   20.8338   19.2105 O   0  5  0  0  0  0  0  0  0  0  0  0
   19.4135   22.2313   19.1142 O   0  0  0  0  0  0  0  0  0  0  0  0
   19.4931   20.6668   20.8199 C   0  0  0  0  0  0  0  0  0  0  0  0
   20.4294   21.1173   21.1412 H   0  0  0  0  0  0  0  0  0  0  0  0
   18.9803   19.6096   21.4896 C   0  0  0  0  0  0  0  0  0  0  0  0
   18.0439   19.1492   21.1749 H   0  0  0  0  0  0  0  0  0  0  0  0
   19.6409   18.9864   22.6997 C   0  0  0  0  0  0  0  0  0  0  0  0
   18.8828   18.4815   23.3134 H   0  0  0  0  0  0  0  0  0  0  0  0
   20.0833   19.7691   23.3309 H   0  0  0  0  0  0  0  0  0  0  0  0
   20.7288   17.9739   22.2869 C   0  0  0  0  0  0  0  0  0  0  0  0
   20.2835   17.1909   21.6575 H   0  0  0  0  0  0  0  0  0  0  0  0
   21.4904   18.4784   21.6762 H   0  0  0  0  0  0  0  0  0  0  0  0
   21.4008   17.3272   23.5149 C   0  0  0  0  0  0  0  0  0  0  0  0
   20.6656   16.7885   24.1269 H   0  0  0  0  0  0  0  0  0  0  0  0
   22.1711   16.6106   23.2015 H   0  0  0  0  0  0  0  0  0  0  0  0
   21.8811   18.0870   24.1453 H   0  0  0  0  0  0  0  0  0  0  0  0
  1  2  1  0  0  0  0
  1  3  2  0  0  0  0
  1  4  1  0  0  0  0
  4  5  1  0  0  0  0
  4  6  2  0  0  0  0
  6  7  1  0  0  0  0
  6  8  1  0  0  0  0
  8  9  1  0  0  0  0
  8 10  1  0  0  0  0
  8 11  1  0  0  0  0
 11 12  1  0  0  0  0
 11 13  1  0  0  0  0
 11 14  1  0  0  0  0
 14 15  1  0  0  0  0
 14 16  1  0  0  0  0
 14 17  1  0  0  0  0
M  END
> <VConfSearch Rank>
266

> <Conf_Id>
1

> <Delta U+W>
0.030

> <U+W>
-53.378

> <U>
9.048

> <W>
-62.426

> <W(PB)>
-64.506

> <W(SA)>
2.080

> <Valence>
2.652

> <Coulomb>
5.578

> <VdW>
0.818

> <VdW6>
-4.535

> <VdW12>
5.352

> <Bond>
0.063

> <Angle>
2.579

> <Pdih>
0.010

> <Idih>
0.000

> <Tether>
0.000

$$$$
VeraChem MOL file


 17 16  0  0  0  0  0  0  0  0999 V2000     
   22.3820   18.8441   24.0113 C   0  0  0  0  0  0  0  0  0  0  0  0
   22.3129   17.6622   24.2920 O   0  5  0  0  0  0  0  0  0  0  0  0
   23.3634   19.5218   24.2466 O   0  0  0  0  0  0  0  0  0  0  0  0
   21.2266   19.5126   23.3539 C   0  0  0  0  0  0  0  0  0  0  0  0
   21.3535   20.5695   23.1312 H   0  0  0  0  0  0  0  0  0  0  0  0
   20.0739   18.8822   23.0330 C   0  0  0  0  0  0  0  0  0  0  0  0
   19.9374   17.8227   23.2486 H   0  0  0  0  0  0  0  0  0  0  0  0
   18.9035   19.5684   22.3605 C   0  0  0  0  0  0  0  0  0  0  0  0
   18.7649   20.5686   22.7928 H   0  0  0  0  0  0  0  0  0  0  0  0
   17.9777   19.0146   22.5670 H   0  0  0  0  0  0  0  0  0  0  0  0
   19.0972   19.6992   20.8337 C   0  0  0  0  0  0  0  0  0  0  0  0
   18.2730   20.2942   20.4168 H   0  0  0  0  0  0  0  0  0  0  0  0
   20.0222   20.2540   20.6239 H   0  0  0  0  0  0  0  0  0  0  0  0
   19.1401   18.3294   20.1235 C   0  0  0  0  0  0  0  0  0  0  0  0
   18.2190   17.7618   20.3091 H   0  0  0  0  0  0  0  0  0  0  0  0
   19.2447   18.4603   19.0387 H   0  0  0  0  0  0  0  0  0  0  0  0
   19.9896   17.7283   20.4732 H   0  0  0  0  0  0  0  0  0  0  0  0
  1  2  1  0  0  0  0
  1  3  2  0  0  0  0
  1  4  1  0  0  0  0
  4  5  1  0  0  0  0
  4  6  2  0  0  0  0
  6  7  1  0  0  0  0
  6  8  1  0  0  0  0
  8  9  1  0  0  0  0
  8 10  1  0  0  0  0
  8 11  1  0  0  0  0
 11 12  1  0  0  0  0
 11 13  1  0  0  0  0
 11 14  1  0  0  0  0
 14 15  1  0  0  0  0
 14 16  1  0  0  0  0
 14 17  1  0  0  0  0
M  END
> <VConfSearch Rank>
267

> <Conf_Id>
3

> <Delta U+W>
0.531

> <U+W>
-52.878

> <U>
10.067

> <W>
-62.945

> <W(PB)>
-64.982

> <W(SA)>
2.037

> <Valence>
2.779

> <Coulomb>
6.474

> <VdW>
0.815

> <VdW6>
-5.088

> <VdW12>
5.902

> <Bond>
0.078

> <Angle>
2.651

> <Pdih>
0.050

> <Idih>
0.000

> <Tether>
0.000

$$$$
VeraChem MOL file


 17 16  0  0  0  0  0  0  0  0999 V2000     
   21.9251   21.3684   22.4951 C   0  0  0  0  0  0  0  0  0  0  0  0
   22.8962   21.4311   23.2237 O   0  5  0  0  0  0  0  0  0  0  0  0
   21.3593   22.3550   22.0626 O   0  0  0  0  0  0  0  0  0  0  0  0
   21.4276   20.0151   22.1277 C   0  0  0  0  0  0  0  0  0  0  0  0
   21.9790   19.1772   22.5481 H   0  0  0  0  0  0  0  0  0  0  0  0
   20.3582   19.7965   21.3289 C   0  0  0  0  0  0  0  0  0  0  0  0
   19.7979   20.6302   20.9064 H   0  0  0  0  0  0  0  0  0  0  0  0
   19.8524   18.4175   20.9589 C   0  0  0  0  0  0  0  0  0  0  0  0
   20.6212   17.6581   21.1564 H   0  0  0  0  0  0  0  0  0  0  0  0
   19.6610   18.3840   19.8780 H   0  0  0  0  0  0  0  0  0  0  0  0
   18.5539   18.0486   21.7091 C   0  0  0  0  0  0  0  0  0  0  0  0
   17.7851   18.8092   21.5142 H   0  0  0  0  0  0  0  0  0  0  0  0
   18.1662   17.1011   21.3101 H   0  0  0  0  0  0  0  0  0  0  0  0
   18.7680   17.9033   23.2309 C   0  0  0  0  0  0  0  0  0  0  0  0
   19.0949   18.8515   23.6773 H   0  0  0  0  0  0  0  0  0  0  0  0
   17.8350   17.6031   23.7251 H   0  0  0  0  0  0  0  0  0  0  0  0
   19.5279   17.1419   23.4495 H   0  0  0  0  0  0  0  0  0  0  0  0
  1  2  1  0  0  0  0
  1  3  2  0  0  0  0
  1  4  1  0  0  0  0
  4  5  1  0  0  0  0
  4  6  2  0  0  0  0
  6  7  1  0  0  0  0
  6  8  1  0  0  0  0
  8  9  1  0  0  0  0
  8 10  1  0  0  0  0
  8 11  1  0  0  0  0
 11 12  1  0  0  0  0
 11 13  1  0  0  0  0
 11 14  1  0  0  0  0
 14 15  1  0  0  0  0
 14 16  1  0  0  0  0
 14 17  1  0  0  0  0
M  END
> <VConfSearch Rank>
268

> <Conf_Id>
45

> <Delta U+W>
0.562

> <U+W>
-52.846

> <U>
10.243

> <W>
-63.089

> <W(PB)>
-65.116

> <W(SA)>
2.026

> <Valence>
2.822

> <Coulomb>
6.637

> <VdW>
0.785

> <VdW6>
-5.216

> <VdW12>
6.001

> <Bond>
0.080

> <Angle>
2.678

> <Pdih>
0.064

> <Idih>
0.000

> <Tether>
0.000

$$$$
VeraChem MOL file


 17 16  0  0  0  0  0  0  0  0999 V2000     
   21.1801   21.4328   24.0605 C   0  0  0  0  0  0  0  0  0  0  0  0
   22.2866   21.5282   24.5548 O   0  5  0  0  0  0  0  0  0  0  0  0
   20.2221   22.0692   24.4575 O   0  0  0  0  0  0  0  0  0  0  0  0
   21.0154   20.4912   22.9201 C   0  0  0  0  0  0  0  0  0  0  0  0
   21.9105   19.9540   22.6151 H   0  0  0  0  0  0  0  0  0  0  0  0
   19.8439   20.2842   22.2768 C   0  0  0  0  0  0  0  0  0  0  0  0
   18.9404   20.8153   22.5757 H   0  0  0  0  0  0  0  0  0  0  0  0
   19.6844   19.3230   21.1192 C   0  0  0  0  0  0  0  0  0  0  0  0
   20.5718   19.3628   20.4730 H   0  0  0  0  0  0  0  0  0  0  0  0
   18.8322   19.6323   20.4991 H   0  0  0  0  0  0  0  0  0  0  0  0
   19.4651   17.8787   21.6142 C   0  0  0  0  0  0  0  0  0  0  0  0
   20.3189   17.5662   22.2315 H   0  0  0  0  0  0  0  0  0  0  0  0
   18.5758   17.8412   22.2587 H   0  0  0  0  0  0  0  0  0  0  0  0
   19.2922   16.8941   20.4403 C   0  0  0  0  0  0  0  0  0  0  0  0
   18.4248   17.1655   19.8243 H   0  0  0  0  0  0  0  0  0  0  0  0
   20.1819   16.8897   19.7970 H   0  0  0  0  0  0  0  0  0  0  0  0
   19.1376   15.8727   20.8118 H   0  0  0  0  0  0  0  0  0  0  0  0
  1  2  1  0  0  0  0
  1  3  2  0  0  0  0
  1  4  1  0  0  0  0
  4  5  1  0  0  0  0
  4  6  2  0  0  0  0
  6  7  1  0  0  0  0
  6  8  1  0  0  0  0
  8  9  1  0  0  0  0
  8 10  1  0  0  0  0
  8 11  1  0  0  0  0
 11 12  1  0  0  0  0
 11 13  1  0  0  0  0
 11 14  1  0  0  0  0
 14 15  1  0  0  0  0
 14 16  1  0  0  0  0
 14 17  1  0  0  0  0
M  END
> <VConfSearch Rank>
269

> <Conf_Id>
36

> <Delta U+W>
0.000

> <U+W>
-53.409

> <U>
9.048

> <W>
-62.457

> <W(PB)>
-64.540

> <W(SA)>
2.084

> <Valence>
2.652

> <Coulomb>
5.578

> <VdW>
0.818

> <VdW6>
-4.534

> <VdW12>
5.352

> <Bond>
0.063

> <Angle>
2.579

> <Pdih>
0.010

> <Idih>
0.000

> <Tether>
0.000

$$$$
VeraChem MOL file


 17 16  0  0  0  0  0  0  0  0999 V2000     
   22.8171   20.1073   20.3348 C   0  0  0  0  0  0  0  0  0  0  0  0
   22.5228   21.1009   19.6973 O   0  5  0  0  0  0  0  0  0  0  0  0
   23.8777   19.5283   20.2025 O   0  0  0  0  0  0  0  0  0  0  0  0
   21.8534   19.5586   21.3270 C   0  0  0  0  0  0  0  0  0  0  0  0
   22.1783   18.6695   21.8627 H   0  0  0  0  0  0  0  0  0  0  0  0
   20.6389   20.0989   21.5766 C   0  0  0  0  0  0  0  0  0  0  0  0
   20.3025   20.9883   21.0441 H   0  0  0  0  0  0  0  0  0  0  0  0
   19.6640   19.5335   22.5861 C   0  0  0  0  0  0  0  0  0  0  0  0
   18.9912   20.3293   22.9333 H   0  0  0  0  0  0  0  0  0  0  0  0
   20.2062   19.1743   23.4714 H   0  0  0  0  0  0  0  0  0  0  0  0
   18.8336   18.3827   21.9819 C   0  0  0  0  0  0  0  0  0  0  0  0
   18.2906   18.7449   21.0979 H   0  0  0  0  0  0  0  0  0  0  0  0
   19.5051   17.5838   21.6377 H   0  0  0  0  0  0  0  0  0  0  0  0
   17.8308   17.8070   23.0020 C   0  0  0  0  0  0  0  0  0  0  0  0
   17.1264   18.5788   23.3391 H   0  0  0  0  0  0  0  0  0  0  0  0
   17.2497   16.9903   22.5544 H   0  0  0  0  0  0  0  0  0  0  0  0
   18.3513   17.4093   23.8830 H   0  0  0  0  0  0  0  0  0  0  0  0
  1  2  1  0  0  0  0
  1  3  2  0  0  0  0
  1  4  1  0  0  0  0
  4  5  1  0  0  0  0
  4  6  2  0  0  0  0
  6  7  1  0  0  0  0
  6  8  1  0  0  0  0
  8  9  1  0  0  0  0
  8 10  1  0  0  0  0
  8 11  1  0  0  0  0
 11 12  1  0  0  0  0
 11 13  1  0  0  0  0
 11 14  1  0  0  0  0
 14 15  1  0  0  0  0
 14 16  1  0  0  0  0
 14 17  1  0  0  0  0
M  END
> <VConfSearch Rank>
270

> <Conf_Id>
1

> <Delta U+W>
0.030

> <U+W>
-53.378

> <U>
9.048

> <W>
-62.426

> <W(PB)>
-64.506

> <W(SA)>
2.080

> <Valence>
2.652

> <Coulomb>
5.578

> <VdW>
0.818

> <VdW6>
-4.535

> <VdW12>
5.352

> <Bond>
0.063

> <Angle>
2.579

> <Pdih>
0.010

> <Idih>
0.000

> <Tether>
0.000

$$$$
VeraChem MOL file


 17 16  0  0  0  0  0  0  0  0999 V2000     
   22.6017   17.9614   20.8060 C   0  0  0  0  0  0  0  0  0  0  0  0
   22.8508   17.0662   21.5916 O   0  5  0  0  0  0  0  0  0  0  0  0
   23.1214   18.0411   19.7100 O   0  0  0  0  0  0  0  0  0  0  0  0
   21.6242   19.0185   21.1817 C   0  0  0  0  0  0  0  0  0  0  0  0
   21.4480   19.7892   20.4349 H   0  0  0  0  0  0  0  0  0  0  0  0
   20.9710   19.0547   22.3653 C   0  0  0  0  0  0  0  0  0  0  0  0
   21.1374   18.2857   23.1194 H   0  0  0  0  0  0  0  0  0  0  0  0
   19.9744   20.1318   22.7392 C   0  0  0  0  0  0  0  0  0  0  0  0
   20.3425   21.1087   22.3975 H   0  0  0  0  0  0  0  0  0  0  0  0
   19.8924   20.2008   23.8323 H   0  0  0  0  0  0  0  0  0  0  0  0
   18.5776   19.8764   22.1317 C   0  0  0  0  0  0  0  0  0  0  0  0
   17.9296   20.7372   22.3465 H   0  0  0  0  0  0  0  0  0  0  0  0
   18.6562   19.8081   21.0378 H   0  0  0  0  0  0  0  0  0  0  0  0
   17.9164   18.5965   22.6863 C   0  0  0  0  0  0  0  0  0  0  0  0
   17.8160   18.6479   23.7782 H   0  0  0  0  0  0  0  0  0  0  0  0
   16.9138   18.4641   22.2595 H   0  0  0  0  0  0  0  0  0  0  0  0
   18.5080   17.7056   22.4380 H   0  0  0  0  0  0  0  0  0  0  0  0
  1  2  1  0  0  0  0
  1  3  2  0  0  0  0
  1  4  1  0  0  0  0
  4  5  1  0  0  0  0
  4  6  2  0  0  0  0
  6  7  1  0  0  0  0
  6  8  1  0  0  0  0
  8  9  1  0  0  0  0
  8 10  1  0  0  0  0
  8 11  1  0  0  0  0
 11 12  1  0  0  0  0
 11 13  1  0  0  0  0
 11 14  1  0  0  0  0
 14 15  1  0  0  0  0
 14 16  1  0  0  0  0
 14 17  1  0  0  0  0
M  END
> <VConfSearch Rank>
271

> <Conf_Id>
3

> <Delta U+W>
0.531

> <U+W>
-52.878

> <U>
10.067

> <W>
-62.945

> <W(PB)>
-64.982

> <W(SA)>
2.037

> <Valence>
2.779

> <Coulomb>
6.474

> <VdW>
0.815

> <VdW6>
-5.088

> <VdW12>
5.902

> <Bond>
0.078

> <Angle>
2.651

> <Pdih>
0.050

> <Idih>
0.000

> <Tether>
0.000

$$$$
VeraChem MOL file


 17 16  0  0  0  0  0  0  0  0999 V2000     
   17.8522   19.7881   20.0445 C   0  0  0  0  0  0  0  0  0  0  0  0
   17.1811   19.0534   19.3463 O   0  5  0  0  0  0  0  0  0  0  0  0
   18.0316   20.9633   19.7851 O   0  0  0  0  0  0  0  0  0  0  0  0
   18.4679   19.2023   21.2659 C   0  0  0  0  0  0  0  0  0  0  0  0
   18.2675   18.1474   21.4382 H   0  0  0  0  0  0  0  0  0  0  0  0
   19.2387   19.9009   22.1305 C   0  0  0  0  0  0  0  0  0  0  0  0
   19.4474   20.9573   21.9634 H   0  0  0  0  0  0  0  0  0  0  0  0
   19.8664   19.3010   23.3716 C   0  0  0  0  0  0  0  0  0  0  0  0
   19.3766   18.3530   23.6327 H   0  0  0  0  0  0  0  0  0  0  0  0
   19.6970   19.9761   24.2210 H   0  0  0  0  0  0  0  0  0  0  0  0
   21.3851   19.0726   23.2085 C   0  0  0  0  0  0  0  0  0  0  0  0
   21.8755   20.0199   22.9447 H   0  0  0  0  0  0  0  0  0  0  0  0
   21.8062   18.7595   24.1738 H   0  0  0  0  0  0  0  0  0  0  0  0
   21.7140   18.0027   22.1455 C   0  0  0  0  0  0  0  0  0  0  0  0
   21.3643   18.3110   21.1517 H   0  0  0  0  0  0  0  0  0  0  0  0
   22.7978   17.8392   22.0849 H   0  0  0  0  0  0  0  0  0  0  0  0
   21.2397   17.0442   22.3934 H   0  0  0  0  0  0  0  0  0  0  0  0
  1  2  1  0  0  0  0
  1  3  2  0  0  0  0
  1  4  1  0  0  0  0
  4  5  1  0  0  0  0
  4  6  2  0  0  0  0
  6  7  1  0  0  0  0
  6  8  1  0  0  0  0
  8  9  1  0  0  0  0
  8 10  1  0  0  0  0
  8 11  1  0  0  0  0
 11 12  1  0  0  0  0
 11 13  1  0  0  0  0
 11 14  1  0  0  0  0
 14 15  1  0  0  0  0
 14 16  1  0  0  0  0
 14 17  1  0  0  0  0
M  END
> <VConfSearch Rank>
272

> <Conf_Id>
45

> <Delta U+W>
0.562

> <U+W>
-52.846

> <U>
10.243

> <W>
-63.089

> <W(PB)>
-65.116

> <W(SA)>
2.026

> <Valence>
2.822

> <Coulomb>
6.637

> <VdW>
0.785

> <VdW6>
-5.216

> <VdW12>
6.001

> <Bond>
0.080

> <Angle>
2.678

> <Pdih>
0.064

> <Idih>
0.000

> <Tether>
0.000

$$$$
VeraChem MOL file


 17 16  0  0  0  0  0  0  0  0999 V2000     
   20.9123   16.6585   19.7956 C   0  0  0  0  0  0  0  0  0  0  0  0
   20.2259   15.8168   19.2497 O   0  5  0  0  0  0  0  0  0  0  0  0
   22.1271   16.5998   19.8298 O   0  0  0  0  0  0  0  0  0  0  0  0
   20.2134   17.8021   20.4420 C   0  0  0  0  0  0  0  0  0  0  0  0
   19.1278   17.7940   20.3750 H   0  0  0  0  0  0  0  0  0  0  0  0
   20.8490   18.8079   21.0849 C   0  0  0  0  0  0  0  0  0  0  0  0
   21.9361   18.8247   21.1600 H   0  0  0  0  0  0  0  0  0  0  0  0
   20.1305   19.9662   21.7417 C   0  0  0  0  0  0  0  0  0  0  0  0
   19.2722   20.2724   21.1280 H   0  0  0  0  0  0  0  0  0  0  0  0
   20.8022   20.8336   21.7942 H   0  0  0  0  0  0  0  0  0  0  0  0
   19.6509   19.5982   23.1607 C   0  0  0  0  0  0  0  0  0  0  0  0
   18.9752   18.7330   23.1094 H   0  0  0  0  0  0  0  0  0  0  0  0
   20.5112   19.2943   23.7730 H   0  0  0  0  0  0  0  0  0  0  0  0
   18.9256   20.7768   23.8406 C   0  0  0  0  0  0  0  0  0  0  0  0
   19.5898   21.6461   23.9334 H   0  0  0  0  0  0  0  0  0  0  0  0
   18.0423   21.0802   23.2634 H   0  0  0  0  0  0  0  0  0  0  0  0
   18.5920   20.4962   24.8481 H   0  0  0  0  0  0  0  0  0  0  0  0
  1  2  1  0  0  0  0
  1  3  2  0  0  0  0
  1  4  1  0  0  0  0
  4  5  1  0  0  0  0
  4  6  2  0  0  0  0
  6  7  1  0  0  0  0
  6  8  1  0  0  0  0
  8  9  1  0  0  0  0
  8 10  1  0  0  0  0
  8 11  1  0  0  0  0
 11 12  1  0  0  0  0
 11 13  1  0  0  0  0
 11 14  1  0  0  0  0
 14 15  1  0  0  0  0
 14 16  1  0  0  0  0
 14 17  1  0  0  0  0
M  END
> <VConfSearch Rank>
273

> <Conf_Id>
36

> <Delta U+W>
0.000

> <U+W>
-53.409

> <U>
9.048

> <W>
-62.457

> <W(PB)>
-64.540

> <W(SA)>
2.084

> <Valence>
2.652

> <Coulomb>
5.578

> <VdW>
0.818

> <VdW6>
-4.534

> <VdW12>
5.352

> <Bond>
0.063

> <Angle>
2.579

> <Pdih>
0.010

> <Idih>
0.000

> <Tether>
0.000

$$$$
VeraChem MOL file


 17 16  0  0  0  0  0  0  0  0999 V2000     
   20.6135   21.5815   19.7166 C   0  0  0  0  0  0  0  0  0  0  0  0
   20.8412   22.5820   20.3705 O   0  5  0  0  0  0  0  0  0  0  0  0
   20.4377   21.6049   18.5140 O   0  0  0  0  0  0  0  0  0  0  0  0
   20.5438   20.2595   20.3961 C   0  0  0  0  0  0  0  0  0  0  0  0
   20.3372   19.4063   19.7541 H   0  0  0  0  0  0  0  0  0  0  0  0
   20.7180   20.0855   21.7259 C   0  0  0  0  0  0  0  0  0  0  0  0
   20.9234   20.9337   22.3787 H   0  0  0  0  0  0  0  0  0  0  0  0
   20.6437   18.7377   22.4094 C   0  0  0  0  0  0  0  0  0  0  0  0
   21.2278   18.7640   23.3392 H   0  0  0  0  0  0  0  0  0  0  0  0
   21.1028   17.9684   21.7736 H   0  0  0  0  0  0  0  0  0  0  0  0
   19.1854   18.3483   22.7269 C   0  0  0  0  0  0  0  0  0  0  0  0
   18.7290   19.1181   23.3646 H   0  0  0  0  0  0  0  0  0  0  0  0
   18.6005   18.3175   21.7971 H   0  0  0  0  0  0  0  0  0  0  0  0
   19.1017   16.9797   23.4321 C   0  0  0  0  0  0  0  0  0  0  0  0
   19.6526   16.9925   24.3817 H   0  0  0  0  0  0  0  0  0  0  0  0
   18.0575   16.7200   23.6498 H   0  0  0  0  0  0  0  0  0  0  0  0
   19.5237   16.1863   22.8013 H   0  0  0  0  0  0  0  0  0  0  0  0
  1  2  1  0  0  0  0
  1  3  2  0  0  0  0
  1  4  1  0  0  0  0
  4  5  1  0  0  0  0
  4  6  2  0  0  0  0
  6  7  1  0  0  0  0
  6  8  1  0  0  0  0
  8  9  1  0  0  0  0
  8 10  1  0  0  0  0
  8 11  1  0  0  0  0
 11 12  1  0  0  0  0
 11 13  1  0  0  0  0
 11 14  1  0  0  0  0
 14 15  1  0  0  0  0
 14 16  1  0  0  0  0
 14 17  1  0  0  0  0
M  END
> <VConfSearch Rank>
274

> <Conf_Id>
1

> <Delta U+W>
0.030

> <U+W>
-53.378

> <U>
9.048

> <W>
-62.426

> <W(PB)>
-64.506

> <W(SA)>
2.080

> <Valence>
2.652

> <Coulomb>
5.578

> <VdW>
0.818

> <VdW6>
-4.535

> <VdW12>
5.352

> <Bond>
0.063

> <Angle>
2.579

> <Pdih>
0.010

> <Idih>
0.000

> <Tether>
0.000

$$$$
VeraChem MOL file


 17 16  0  0  0  0  0  0  0  0999 V2000     
   17.1632   17.9562   21.7719 C   0  0  0  0  0  0  0  0  0  0  0  0
   17.2633   16.9432   22.4384 O   0  5  0  0  0  0  0  0  0  0  0  0
   16.0915   18.4263   21.4429 O   0  0  0  0  0  0  0  0  0  0  0  0
   18.3917   18.6667   21.3248 C   0  0  0  0  0  0  0  0  0  0  0  0
   18.2318   19.5643   20.7319 H   0  0  0  0  0  0  0  0  0  0  0  0
   19.6473   18.2585   21.6179 C   0  0  0  0  0  0  0  0  0  0  0  0
   19.8189   17.3625   22.2141 H   0  0  0  0  0  0  0  0  0  0  0  0
   20.8930   18.9891   21.1626 C   0  0  0  0  0  0  0  0  0  0  0  0
   20.7609   19.3328   20.1278 H   0  0  0  0  0  0  0  0  0  0  0  0
   21.7466   18.2981   21.1491 H   0  0  0  0  0  0  0  0  0  0  0  0
   21.2244   20.2015   22.0603 C   0  0  0  0  0  0  0  0  0  0  0  0
   22.0695   20.7513   21.6238 H   0  0  0  0  0  0  0  0  0  0  0  0
   20.3725   20.8954   22.0749 H   0  0  0  0  0  0  0  0  0  0  0  0
   21.5830   19.7882   23.5037 C   0  0  0  0  0  0  0  0  0  0  0  0
   22.4410   19.1035   23.5145 H   0  0  0  0  0  0  0  0  0  0  0  0
   21.8449   20.6693   24.1036 H   0  0  0  0  0  0  0  0  0  0  0  0
   20.7381   19.2868   23.9937 H   0  0  0  0  0  0  0  0  0  0  0  0
  1  2  1  0  0  0  0
  1  3  2  0  0  0  0
  1  4  1  0  0  0  0
  4  5  1  0  0  0  0
  4  6  2  0  0  0  0
  6  7  1  0  0  0  0
  6  8  1  0  0  0  0
  8  9  1  0  0  0  0
  8 10  1  0  0  0  0
  8 11  1  0  0  0  0
 11 12  1  0  0  0  0
 11 13  1  0  0  0  0
 11 14  1  0  0  0  0
 14 15  1  0  0  0  0
 14 16  1  0  0  0  0
 14 17  1  0  0  0  0
M  END
> <VConfSearch Rank>
275

> <Conf_Id>
3

> <Delta U+W>
0.531

> <U+W>
-52.878

> <U>
10.067

> <W>
-62.945

> <W(PB)>
-64.982

> <W(SA)>
2.037

> <Valence>
2.779

> <Coulomb>
6.474

> <VdW>
0.815

> <VdW6>
-5.088

> <VdW12>
5.902

> <Bond>
0.078

> <Angle>
2.651

> <Pdih>
0.050

> <Idih>
0.000

> <Tether>
0.000

$$$$
VeraChem MOL file


 17 16  0  0  0  0  0  0  0  0999 V2000     
   19.4940   17.6737   19.4589 C   0  0  0  0  0  0  0  0  0  0  0  0
   20.0689   16.7148   18.9817 O   0  5  0  0  0  0  0  0  0  0  0  0
   18.8426   18.4535   18.7895 O   0  0  0  0  0  0  0  0  0  0  0  0
   19.6041   17.8797   20.9284 C   0  0  0  0  0  0  0  0  0  0  0  0
   20.2007   17.1466   21.4663 H   0  0  0  0  0  0  0  0  0  0  0  0
   19.0196   18.9034   21.5918 C   0  0  0  0  0  0  0  0  0  0  0  0
   18.4232   19.6444   21.0601 H   0  0  0  0  0  0  0  0  0  0  0  0
   19.1357   19.1119   23.0876 C   0  0  0  0  0  0  0  0  0  0  0  0
   19.4756   18.1911   23.5809 H   0  0  0  0  0  0  0  0  0  0  0  0
   18.1402   19.3283   23.4976 H   0  0  0  0  0  0  0  0  0  0  0  0
   20.0881   20.2740   23.4451 C   0  0  0  0  0  0  0  0  0  0  0  0
   19.7503   21.1950   22.9499 H   0  0  0  0  0  0  0  0  0  0  0  0
   20.0346   20.4615   24.5264 H   0  0  0  0  0  0  0  0  0  0  0  0
   21.5533   19.9819   23.0572 C   0  0  0  0  0  0  0  0  0  0  0  0
   21.6575   19.8523   21.9721 H   0  0  0  0  0  0  0  0  0  0  0  0
   22.2057   20.8108   23.3610 H   0  0  0  0  0  0  0  0  0  0  0  0
   21.9146   19.0686   23.5475 H   0  0  0  0  0  0  0  0  0  0  0  0
  1  2  1  0  0  0  0
  1  3  2  0  0  0  0
  1  4  1  0  0  0  0
  4  5  1  0  0  0  0
  4  6  2  0  0  0  0
  6  7  1  0  0  0  0
  6  8  1  0  0  0  0
  8  9  1  0  0  0  0
  8 10  1  0  0  0  0
  8 11  1  0  0  0  0
 11 12  1  0  0  0  0
 11 13  1  0  0  0  0
 11 14  1  0  0  0  0
 14 15  1  0  0  0  0
 14 16  1  0  0  0  0
 14 17  1  0  0  0  0
M  END
> <VConfSearch Rank>
276

> <Conf_Id>
45

> <Delta U+W>
0.562

> <U+W>
-52.846

> <U>
10.243

> <W>
-63.089

> <W(PB)>
-65.116

> <W(SA)>
2.026

> <Valence>
2.822

> <Coulomb>
6.637

> <VdW>
0.785

> <VdW6>
-5.216

> <VdW12>
6.001

> <Bond>
0.080

> <Angle>
2.678

> <Pdih>
0.064

> <Idih>
0.000

> <Tether>
0.000

$$$$
VeraChem MOL file


 17 16  0  0  0  0  0  0  0  0999 V2000     
   20.1665   18.7588   25.2630 C   0  0  0  0  0  0  0  0  0  0  0  0
   19.3464   19.0506   26.1115 O   0  5  0  0  0  0  0  0  0  0  0  0
   21.3205   18.4791   25.5282 O   0  0  0  0  0  0  0  0  0  0  0  0
   19.7151   18.7490   23.8452 C   0  0  0  0  0  0  0  0  0  0  0  0
   18.6722   19.0082   23.6773 H   0  0  0  0  0  0  0  0  0  0  0  0
   20.5184   18.4452   22.8005 C   0  0  0  0  0  0  0  0  0  0  0  0
   21.5654   18.1863   22.9571 H   0  0  0  0  0  0  0  0  0  0  0  0
   20.0519   18.4396   21.3612 C   0  0  0  0  0  0  0  0  0  0  0  0
   19.0316   18.0373   21.2986 H   0  0  0  0  0  0  0  0  0  0  0  0
   20.6894   17.7679   20.7705 H   0  0  0  0  0  0  0  0  0  0  0  0
   20.0912   19.8562   20.7523 C   0  0  0  0  0  0  0  0  0  0  0  0
   19.4505   20.5286   21.3396 H   0  0  0  0  0  0  0  0  0  0  0  0
   21.1131   20.2556   20.8141 H   0  0  0  0  0  0  0  0  0  0  0  0
   19.6260   19.8576   19.2822 C   0  0  0  0  0  0  0  0  0  0  0  0
   20.2701   19.2170   18.6656 H   0  0  0  0  0  0  0  0  0  0  0  0
   18.5946   19.4912   19.1962 H   0  0  0  0  0  0  0  0  0  0  0  0
   19.6607   20.8731   18.8666 H   0  0  0  0  0  0  0  0  0  0  0  0
  1  2  1  0  0  0  0
  1  3  2  0  0  0  0
  1  4  1  0  0  0  0
  4  5  1  0  0  0  0
  4  6  2  0  0  0  0
  6  7  1  0  0  0  0
  6  8  1  0  0  0  0
  8  9  1  0  0  0  0
  8 10  1  0  0  0  0
  8 11  1  0  0  0  0
 11 12  1  0  0  0  0
 11 13  1  0  0  0  0
 11 14  1  0  0  0  0
 14 15  1  0  0  0  0
 14 16  1  0  0  0  0
 14 17  1  0  0  0  0
M  END
> <VConfSearch Rank>
277

> <Conf_Id>
36

> <Delta U+W>
0.000

> <U+W>
-53.409

> <U>
9.048

> <W>
-62.457

> <W(PB)>
-64.540

> <W(SA)>
2.084

> <Valence>
2.652

> <Coulomb>
5.578

> <VdW>
0.818

> <VdW6>
-4.534

> <VdW12>
5.352

> <Bond>
0.063

> <Angle>
2.579

> <Pdih>
0.010

> <Idih>
0.000

> <Tether>
0.000

$$$$
VeraChem MOL file


 17 16  0  0  0  0  0  0  0  0999 V2000     
   17.0567   19.8054   23.3710 C   0  0  0  0  0  0  0  0  0  0  0  0
   16.5548   20.7079   22.7276 O   0  5  0  0  0  0  0  0  0  0  0  0
   16.6192   19.4370   24.4437 O   0  0  0  0  0  0  0  0  0  0  0  0
   18.2585   19.1057   22.8418 C   0  0  0  0  0  0  0  0  0  0  0  0
   18.6570   18.3089   23.4657 H   0  0  0  0  0  0  0  0  0  0  0  0
   18.8511   19.4108   21.6650 C   0  0  0  0  0  0  0  0  0  0  0  0
   18.4614   20.2086   21.0330 H   0  0  0  0  0  0  0  0  0  0  0  0
   20.0743   18.6953   21.1348 C   0  0  0  0  0  0  0  0  0  0  0  0
   20.1063   18.7832   20.0404 H   0  0  0  0  0  0  0  0  0  0  0  0
   20.0090   17.6222   21.3603 H   0  0  0  0  0  0  0  0  0  0  0  0
   21.3701   19.2759   21.7373 C   0  0  0  0  0  0  0  0  0  0  0  0
   21.4342   20.3488   21.5085 H   0  0  0  0  0  0  0  0  0  0  0  0
   21.3415   19.1851   22.8320 H   0  0  0  0  0  0  0  0  0  0  0  0
   22.6222   18.5581   21.1947 C   0  0  0  0  0  0  0  0  0  0  0  0
   22.6923   18.6606   20.1038 H   0  0  0  0  0  0  0  0  0  0  0  0
   23.5333   18.9845   21.6343 H   0  0  0  0  0  0  0  0  0  0  0  0
   22.5976   17.4877   21.4378 H   0  0  0  0  0  0  0  0  0  0  0  0
  1  2  1  0  0  0  0
  1  3  2  0  0  0  0
  1  4  1  0  0  0  0
  4  5  1  0  0  0  0
  4  6  2  0  0  0  0
  6  7  1  0  0  0  0
  6  8  1  0  0  0  0
  8  9  1  0  0  0  0
  8 10  1  0  0  0  0
  8 11  1  0  0  0  0
 11 12  1  0  0  0  0
 11 13  1  0  0  0  0
 11 14  1  0  0  0  0
 14 15  1  0  0  0  0
 14 16  1  0  0  0  0
 14 17  1  0  0  0  0
M  END
> <VConfSearch Rank>
278

> <Conf_Id>
1

> <Delta U+W>
0.030

> <U+W>
-53.378

> <U>
9.048

> <W>
-62.426

> <W(PB)>
-64.506

> <W(SA)>
2.080

> <Valence>
2.652

> <Coulomb>
5.578

> <VdW>
0.818

> <VdW6>
-4.535

> <VdW12>
5.352

> <Bond>
0.063

> <Angle>
2.579

> <Pdih>
0.010

> <Idih>
0.000

> <Tether>
0.000

$$$$
VeraChem MOL file


 17 16  0  0  0  0  0  0  0  0999 V2000     
   19.5744   19.1039   25.1007 C   0  0  0  0  0  0  0  0  0  0  0  0
   18.3661   19.2396   25.1461 O   0  5  0  0  0  0  0  0  0  0  0  0
   20.2345   18.7451   26.0564 O   0  0  0  0  0  0  0  0  0  0  0  0
   20.2989   19.3867   23.8321 C   0  0  0  0  0  0  0  0  0  0  0  0
   21.3771   19.2466   23.8599 H   0  0  0  0  0  0  0  0  0  0  0  0
   19.6935   19.7911   22.6925 C   0  0  0  0  0  0  0  0  0  0  0  0
   18.6135   19.9314   22.6526 H   0  0  0  0  0  0  0  0  0  0  0  0
   20.4372   20.0734   21.4039 C   0  0  0  0  0  0  0  0  0  0  0  0
   21.3747   20.6002   21.6276 H   0  0  0  0  0  0  0  0  0  0  0  0
   19.8472   20.7526   20.7740 H   0  0  0  0  0  0  0  0  0  0  0  0
   20.7565   18.7844   20.6153 C   0  0  0  0  0  0  0  0  0  0  0  0
   21.3843   19.0388   19.7502 H   0  0  0  0  0  0  0  0  0  0  0  0
   21.3479   18.1032   21.2427 H   0  0  0  0  0  0  0  0  0  0  0  0
   19.4845   18.0631   20.1208 C   0  0  0  0  0  0  0  0  0  0  0  0
   18.8833   18.7218   19.4806 H   0  0  0  0  0  0  0  0  0  0  0  0
   19.7485   17.1718   19.5370 H   0  0  0  0  0  0  0  0  0  0  0  0
   18.8594   17.7402   20.9635 H   0  0  0  0  0  0  0  0  0  0  0  0
  1  2  1  0  0  0  0
  1  3  2  0  0  0  0
  1  4  1  0  0  0  0
  4  5  1  0  0  0  0
  4  6  2  0  0  0  0
  6  7  1  0  0  0  0
  6  8  1  0  0  0  0
  8  9  1  0  0  0  0
  8 10  1  0  0  0  0
  8 11  1  0  0  0  0
 11 12  1  0  0  0  0
 11 13  1  0  0  0  0
 11 14  1  0  0  0  0
 14 15  1  0  0  0  0
 14 16  1  0  0  0  0
 14 17  1  0  0  0  0
M  END
> <VConfSearch Rank>
279

> <Conf_Id>
3

> <Delta U+W>
0.531

> <U+W>
-52.878

> <U>
10.067

> <W>
-62.945

> <W(PB)>
-64.982

> <W(SA)>
2.037

> <Valence>
2.779

> <Coulomb>
6.474

> <VdW>
0.815

> <VdW6>
-5.088

> <VdW12>
5.902

> <Bond>
0.078

> <Angle>
2.651

> <Pdih>
0.050

> <Idih>
0.000

> <Tether>
0.000

$$$$
VeraChem MOL file


 17 16  0  0  0  0  0  0  0  0999 V2000     
   19.8821   16.1228   21.5782 C   0  0  0  0  0  0  0  0  0  0  0  0
   19.6302   15.2162   22.3479 O   0  5  0  0  0  0  0  0  0  0  0  0
   20.4933   15.9564   20.5393 O   0  0  0  0  0  0  0  0  0  0  0  0
   19.4090   17.4856   21.9429 C   0  0  0  0  0  0  0  0  0  0  0  0
   18.8696   17.5639   22.8839 H   0  0  0  0  0  0  0  0  0  0  0  0
   19.6199   18.5848   21.1834 C   0  0  0  0  0  0  0  0  0  0  0  0
   20.1626   18.5159   20.2409 H   0  0  0  0  0  0  0  0  0  0  0  0
   19.1394   19.9714   21.5587 C   0  0  0  0  0  0  0  0  0  0  0  0
   18.3615   19.9146   22.3323 H   0  0  0  0  0  0  0  0  0  0  0  0
   18.6660   20.4358   20.6834 H   0  0  0  0  0  0  0  0  0  0  0  0
   20.2904   20.8787   22.0458 C   0  0  0  0  0  0  0  0  0  0  0  0
   21.0701   20.9340   21.2736 H   0  0  0  0  0  0  0  0  0  0  0  0
   19.9090   21.9003   22.1804 H   0  0  0  0  0  0  0  0  0  0  0  0
   20.9076   20.3932   23.3748 C   0  0  0  0  0  0  0  0  0  0  0  0
   21.3577   19.3983   23.2624 H   0  0  0  0  0  0  0  0  0  0  0  0
   21.6938   21.0821   23.7097 H   0  0  0  0  0  0  0  0  0  0  0  0
   20.1465   20.3377   24.1640 H   0  0  0  0  0  0  0  0  0  0  0  0
  1  2  1  0  0  0  0
  1  3  2  0  0  0  0
  1  4  1  0  0  0  0
  4  5  1  0  0  0  0
  4  6  2  0  0  0  0
  6  7  1  0  0  0  0
  6  8  1  0  0  0  0
  8  9  1  0  0  0  0
  8 10  1  0  0  0  0
  8 11  1  0  0  0  0
 11 12  1  0  0  0  0
 11 13  1  0  0  0  0
 11 14  1  0  0  0  0
 14 15  1  0  0  0  0
 14 16  1  0  0  0  0
 14 17  1  0  0  0  0
M  END
> <VConfSearch Rank>
280

> <Conf_Id>
45

> <Delta U+W>
0.562

> <U+W>
-52.846

> <U>
10.243

> <W>
-63.089

> <W(PB)>
-65.116

> <W(SA)>
2.026

> <Valence>
2.822

> <Coulomb>
6.637

> <VdW>
0.785

> <VdW6>
-5.216

> <VdW12>
6.001

> <Bond>
0.080

> <Angle>
2.678

> <Pdih>
0.064

> <Idih>
0.000

> <Tether>
0.000

$$$$
VeraChem MOL file


 17 16  0  0  0  0  0  0  0  0999 V2000     
   19.8950   21.1581   19.2293 C   0  0  0  0  0  0  0  0  0  0  0  0
   20.6025   21.1637   18.2408 O   0  5  0  0  0  0  0  0  0  0  0  0
   19.1455   22.0744   19.5104 O   0  0  0  0  0  0  0  0  0  0  0  0
   19.9654   19.9670   20.1184 C   0  0  0  0  0  0  0  0  0  0  0  0
   20.6548   19.1845   19.8098 H   0  0  0  0  0  0  0  0  0  0  0  0
   19.2373   19.8267   21.2495 C   0  0  0  0  0  0  0  0  0  0  0  0
   18.5453   20.6056   21.5692 H   0  0  0  0  0  0  0  0  0  0  0  0
   19.3164   18.6130   22.1493 C   0  0  0  0  0  0  0  0  0  0  0  0
   19.4190   17.7023   21.5435 H   0  0  0  0  0  0  0  0  0  0  0  0
   18.3785   18.5102   22.7116 H   0  0  0  0  0  0  0  0  0  0  0  0
   20.4992   18.7193   23.1336 C   0  0  0  0  0  0  0  0  0  0  0  0
   21.4389   18.8179   22.5726 H   0  0  0  0  0  0  0  0  0  0  0  0
   20.3933   19.6297   23.7398 H   0  0  0  0  0  0  0  0  0  0  0  0
   20.5811   17.4901   24.0609 C   0  0  0  0  0  0  0  0  0  0  0  0
   19.6654   17.3863   24.6576 H   0  0  0  0  0  0  0  0  0  0  0  0
   20.7184   16.5684   23.4803 H   0  0  0  0  0  0  0  0  0  0  0  0
   21.4278   17.5837   24.7533 H   0  0  0  0  0  0  0  0  0  0  0  0
  1  2  1  0  0  0  0
  1  3  2  0  0  0  0
  1  4  1  0  0  0  0
  4  5  1  0  0  0  0
  4  6  2  0  0  0  0
  6  7  1  0  0  0  0
  6  8  1  0  0  0  0
  8  9  1  0  0  0  0
  8 10  1  0  0  0  0
  8 11  1  0  0  0  0
 11 12  1  0  0  0  0
 11 13  1  0  0  0  0
 11 14  1  0  0  0  0
 14 15  1  0  0  0  0
 14 16  1  0  0  0  0
 14 17  1  0  0  0  0
M  END
> <VConfSearch Rank>
281

> <Conf_Id>
36

> <Delta U+W>
0.000

> <U+W>
-53.409

> <U>
9.048

> <W>
-62.457

> <W(PB)>
-64.540

> <W(SA)>
2.084

> <Valence>
2.652

> <Coulomb>
5.578

> <VdW>
0.818

> <VdW6>
-4.534

> <VdW12>
5.352

> <Bond>
0.063

> <Angle>
2.579

> <Pdih>
0.010

> <Idih>
0.000

> <Tether>
0.000

$$$$
VeraChem MOL file


 17 16  0  0  0  0  0  0  0  0999 V2000     
   16.7834   18.1389   21.7423 C   0  0  0  0  0  0  0  0  0  0  0  0
   16.6905   17.3765   20.7986 O   0  5  0  0  0  0  0  0  0  0  0  0
   15.8160   18.5904   22.3237 O   0  0  0  0  0  0  0  0  0  0  0  0
   18.1295   18.5502   22.2251 C   0  0  0  0  0  0  0  0  0  0  0  0
   18.1419   19.2329   23.0717 H   0  0  0  0  0  0  0  0  0  0  0  0
   19.2897   18.1275   21.6735 C   0  0  0  0  0  0  0  0  0  0  0  0
   19.2888   17.4452   20.8236 H   0  0  0  0  0  0  0  0  0  0  0  0
   20.6546   18.5521   22.1694 C   0  0  0  0  0  0  0  0  0  0  0  0
   21.3977   17.7898   21.8990 H   0  0  0  0  0  0  0  0  0  0  0  0
   20.6536   18.6122   23.2663 H   0  0  0  0  0  0  0  0  0  0  0  0
   21.0706   19.9127   21.5739 C   0  0  0  0  0  0  0  0  0  0  0  0
   21.0730   19.8494   20.4768 H   0  0  0  0  0  0  0  0  0  0  0  0
   20.3303   20.6774   21.8470 H   0  0  0  0  0  0  0  0  0  0  0  0
   22.4650   20.3482   22.0674 C   0  0  0  0  0  0  0  0  0  0  0  0
   23.2304   19.6156   21.7794 H   0  0  0  0  0  0  0  0  0  0  0  0
   22.7435   21.3174   21.6334 H   0  0  0  0  0  0  0  0  0  0  0  0
   22.4810   20.4493   23.1605 H   0  0  0  0  0  0  0  0  0  0  0  0
  1  2  1  0  0  0  0
  1  3  2  0  0  0  0
  1  4  1  0  0  0  0
  4  5  1  0  0  0  0
  4  6  2  0  0  0  0
  6  7  1  0  0  0  0
  6  8  1  0  0  0  0
  8  9  1  0  0  0  0
  8 10  1  0  0  0  0
  8 11  1  0  0  0  0
 11 12  1  0  0  0  0
 11 13  1  0  0  0  0
 11 14  1  0  0  0  0
 14 15  1  0  0  0  0
 14 16  1  0  0  0  0
 14 17  1  0  0  0  0
M  END
> <VConfSearch Rank>
282

> <Conf_Id>
1

> <Delta U+W>
0.030

> <U+W>
-53.378

> <U>
9.048

> <W>
-62.426

> <W(PB)>
-64.506

> <W(SA)>
2.080

> <Valence>
2.652

> <Coulomb>
5.578

> <VdW>
0.818

> <VdW6>
-4.535

> <VdW12>
5.352

> <Bond>
0.063

> <Angle>
2.579

> <Pdih>
0.010

> <Idih>
0.000

> <Tether>
0.000

$$$$
VeraChem MOL file


 17 16  0  0  0  0  0  0  0  0999 V2000     
   22.4563   17.9773   20.5291 C   0  0  0  0  0  0  0  0  0  0  0  0
   23.2783   17.9470   21.4257 O   0  5  0  0  0  0  0  0  0  0  0  0
   22.6040   17.3842   19.4783 O   0  0  0  0  0  0  0  0  0  0  0  0
   21.2094   18.7708   20.7011 C   0  0  0  0  0  0  0  0  0  0  0  0
   20.5178   18.7561   19.8619 H   0  0  0  0  0  0  0  0  0  0  0  0
   20.9135   19.4774   21.8156 C   0  0  0  0  0  0  0  0  0  0  0  0
   21.5976   19.4963   22.6636 H   0  0  0  0  0  0  0  0  0  0  0  0
   19.6404   20.2796   21.9850 C   0  0  0  0  0  0  0  0  0  0  0  0
   19.4046   20.7989   21.0462 H   0  0  0  0  0  0  0  0  0  0  0  0
   19.7913   21.0637   22.7391 H   0  0  0  0  0  0  0  0  0  0  0  0
   18.4394   19.3972   22.3908 C   0  0  0  0  0  0  0  0  0  0  0  0
   17.5282   20.0110   22.3956 H   0  0  0  0  0  0  0  0  0  0  0  0
   18.2851   18.6123   21.6374 H   0  0  0  0  0  0  0  0  0  0  0  0
   18.6216   18.7538   23.7821 C   0  0  0  0  0  0  0  0  0  0  0  0
   18.7650   19.5212   24.5539 H   0  0  0  0  0  0  0  0  0  0  0  0
   17.7373   18.1623   24.0524 H   0  0  0  0  0  0  0  0  0  0  0  0
   19.4917   18.0846   23.7981 H   0  0  0  0  0  0  0  0  0  0  0  0
  1  2  1  0  0  0  0
  1  3  2  0  0  0  0
  1  4  1  0  0  0  0
  4  5  1  0  0  0  0
  4  6  2  0  0  0  0
  6  7  1  0  0  0  0
  6  8  1  0  0  0  0
  8  9  1  0  0  0  0
  8 10  1  0  0  0  0
  8 11  1  0  0  0  0
 11 12  1  0  0  0  0
 11 13  1  0  0  0  0
 11 14  1  0  0  0  0
 14 15  1  0  0  0  0
 14 16  1  0  0  0  0
 14 17  1  0  0  0  0
M  END
> <VConfSearch Rank>
283

> <Conf_Id>
3

> <Delta U+W>
0.531

> <U+W>
-52.878

> <U>
10.067

> <W>
-62.945

> <W(PB)>
-64.982

> <W(SA)>
2.037

> <Valence>
2.779

> <Coulomb>
6.474

> <VdW>
0.815

> <VdW6>
-5.088

> <VdW12>
5.902

> <Bond>
0.078

> <Angle>
2.651

> <Pdih>
0.050

> <Idih>
0.000

> <Tether>
0.000

$$$$
VeraChem MOL file


 17 16  0  0  0  0  0  0  0  0999 V2000     
   20.3952   18.7375   25.0451 C   0  0  0  0  0  0  0  0  0  0  0  0
   20.7845   19.5355   25.8755 O   0  5  0  0  0  0  0  0  0  0  0  0
   20.4425   17.5334   25.2134 O   0  0  0  0  0  0  0  0  0  0  0  0
   19.8377   19.2816   23.7773 C   0  0  0  0  0  0  0  0  0  0  0  0
   19.8248   20.3657   23.6921 H   0  0  0  0  0  0  0  0  0  0  0  0
   19.3711   18.5118   22.7677 C   0  0  0  0  0  0  0  0  0  0  0  0
   19.3837   17.4248   22.8434 H   0  0  0  0  0  0  0  0  0  0  0  0
   18.8067   19.0687   21.4771 C   0  0  0  0  0  0  0  0  0  0  0  0
   18.5462   20.1293   21.5951 H   0  0  0  0  0  0  0  0  0  0  0  0
   17.8686   18.5483   21.2422 H   0  0  0  0  0  0  0  0  0  0  0  0
   19.7819   18.9027   20.2911 C   0  0  0  0  0  0  0  0  0  0  0  0
   20.0451   17.8423   20.1740 H   0  0  0  0  0  0  0  0  0  0  0  0
   19.2741   19.2041   19.3646 H   0  0  0  0  0  0  0  0  0  0  0  0
   21.0666   19.7424   20.4565 C   0  0  0  0  0  0  0  0  0  0  0  0
   21.6361   19.4253   21.3397 H   0  0  0  0  0  0  0  0  0  0  0  0
   21.7166   19.6304   19.5792 H   0  0  0  0  0  0  0  0  0  0  0  0
   20.8274   20.8080   20.5677 H   0  0  0  0  0  0  0  0  0  0  0  0
  1  2  1  0  0  0  0
  1  3  2  0  0  0  0
  1  4  1  0  0  0  0
  4  5  1  0  0  0  0
  4  6  2  0  0  0  0
  6  7  1  0  0  0  0
  6  8  1  0  0  0  0
  8  9  1  0  0  0  0
  8 10  1  0  0  0  0
  8 11  1  0  0  0  0
 11 12  1  0  0  0  0
 11 13  1  0  0  0  0
 11 14  1  0  0  0  0
 14 15  1  0  0  0  0
 14 16  1  0  0  0  0
 14 17  1  0  0  0  0
M  END
> <VConfSearch Rank>
284

> <Conf_Id>
45

> <Delta U+W>
0.562

> <U+W>
-52.846

> <U>
10.243

> <W>
-63.089

> <W(PB)>
-65.116

> <W(SA)>
2.026

> <Valence>
2.822

> <Coulomb>
6.637

> <VdW>
0.785

> <VdW6>
-5.216

> <VdW12>
6.001

> <Bond>
0.080

> <Angle>
2.678

> <Pdih>
0.064

> <Idih>
0.000

> <Tether>
0.000

$$$$
VeraChem MOL file


 17 16  0  0  0  0  0  0  0  0999 V2000     
   22.5896   21.0356   22.8925 C   0  0  0  0  0  0  0  0  0  0  0  0
   22.6783   22.2472   22.9346 O   0  5  0  0  0  0  0  0  0  0  0  0
   23.5520   20.2986   22.9978 O   0  0  0  0  0  0  0  0  0  0  0  0
   21.2339   20.4516   22.7046 C   0  0  0  0  0  0  0  0  0  0  0  0
   20.4177   21.1651   22.6176 H   0  0  0  0  0  0  0  0  0  0  0  0
   20.9879   19.1234   22.6383 C   0  0  0  0  0  0  0  0  0  0  0  0
   21.7986   18.3998   22.7220 H   0  0  0  0  0  0  0  0  0  0  0  0
   19.6063   18.5377   22.4449 C   0  0  0  0  0  0  0  0  0  0  0  0
   18.8681   19.1221   23.0109 H   0  0  0  0  0  0  0  0  0  0  0  0
   19.5783   17.5187   22.8539 H   0  0  0  0  0  0  0  0  0  0  0  0
   19.2130   18.5064   20.9538 C   0  0  0  0  0  0  0  0  0  0  0  0
   19.2365   19.5258   20.5441 H   0  0  0  0  0  0  0  0  0  0  0  0
   19.9517   17.9197   20.3902 H   0  0  0  0  0  0  0  0  0  0  0  0
   17.8096   17.9020   20.7473 C   0  0  0  0  0  0  0  0  0  0  0  0
   17.7674   16.8701   21.1200 H   0  0  0  0  0  0  0  0  0  0  0  0
   17.0473   18.4891   21.2761 H   0  0  0  0  0  0  0  0  0  0  0  0
   17.5475   17.8882   19.6813 H   0  0  0  0  0  0  0  0  0  0  0  0
  1  2  1  0  0  0  0
  1  3  2  0  0  0  0
  1  4  1  0  0  0  0
  4  5  1  0  0  0  0
  4  6  2  0  0  0  0
  6  7  1  0  0  0  0
  6  8  1  0  0  0  0
  8  9  1  0  0  0  0
  8 10  1  0  0  0  0
  8 11  1  0  0  0  0
 11 12  1  0  0  0  0
 11 13  1  0  0  0  0
 11 14  1  0  0  0  0
 14 15  1  0  0  0  0
 14 16  1  0  0  0  0
 14 17  1  0  0  0  0
M  END
> <VConfSearch Rank>
285

> <Conf_Id>
36

> <Delta U+W>
0.000

> <U+W>
-53.409

> <U>
9.048

> <W>
-62.457

> <W(PB)>
-64.540

> <W(SA)>
2.084

> <Valence>
2.652

> <Coulomb>
5.578

> <VdW>
0.818

> <VdW6>
-4.534

> <VdW12>
5.352

> <Bond>
0.063

> <Angle>
2.579

> <Pdih>
0.010

> <Idih>
0.000

> <Tether>
0.000

$$$$
VeraChem MOL file


 17 16  0  0  0  0  0  0  0  0999 V2000     
   23.2353   18.3678   22.6030 C   0  0  0  0  0  0  0  0  0  0  0  0
   23.5035   18.9185   23.6543 O   0  5  0  0  0  0  0  0  0  0  0  0
   24.0785   17.8583   21.8909 O   0  0  0  0  0  0  0  0  0  0  0  0
   21.8200   18.3012   22.1485 C   0  0  0  0  0  0  0  0  0  0  0  0
   21.6491   17.7954   21.2009 H   0  0  0  0  0  0  0  0  0  0  0  0
   20.7813   18.8253   22.8381 C   0  0  0  0  0  0  0  0  0  0  0  0
   20.9415   19.3361   23.7875 H   0  0  0  0  0  0  0  0  0  0  0  0
   19.3450   18.7548   22.3679 C   0  0  0  0  0  0  0  0  0  0  0  0
   18.6711   18.8265   23.2322 H   0  0  0  0  0  0  0  0  0  0  0  0
   19.1505   17.7802   21.8999 H   0  0  0  0  0  0  0  0  0  0  0  0
   19.0247   19.8853   21.3686 C   0  0  0  0  0  0  0  0  0  0  0  0
   19.2180   20.8591   21.8397 H   0  0  0  0  0  0  0  0  0  0  0  0
   19.6955   19.8126   20.5012 H   0  0  0  0  0  0  0  0  0  0  0  0
   17.5597   19.8259   20.8915 C   0  0  0  0  0  0  0  0  0  0  0  0
   16.8666   19.9283   21.7369 H   0  0  0  0  0  0  0  0  0  0  0  0
   17.3508   20.6372   20.1820 H   0  0  0  0  0  0  0  0  0  0  0  0
   17.3486   18.8731   20.3885 H   0  0  0  0  0  0  0  0  0  0  0  0
  1  2  1  0  0  0  0
  1  3  2  0  0  0  0
  1  4  1  0  0  0  0
  4  5  1  0  0  0  0
  4  6  2  0  0  0  0
  6  7  1  0  0  0  0
  6  8  1  0  0  0  0
  8  9  1  0  0  0  0
  8 10  1  0  0  0  0
  8 11  1  0  0  0  0
 11 12  1  0  0  0  0
 11 13  1  0  0  0  0
 11 14  1  0  0  0  0
 14 15  1  0  0  0  0
 14 16  1  0  0  0  0
 14 17  1  0  0  0  0
M  END
> <VConfSearch Rank>
286

> <Conf_Id>
1

> <Delta U+W>
0.030

> <U+W>
-53.378

> <U>
9.048

> <W>
-62.426

> <W(PB)>
-64.506

> <W(SA)>
2.080

> <Valence>
2.652

> <Coulomb>
5.578

> <VdW>
0.818

> <VdW6>
-4.535

> <VdW12>
5.352

> <Bond>
0.063

> <Angle>
2.579

> <Pdih>
0.010

> <Idih>
0.000

> <Tether>
0.000

$$$$
VeraChem MOL file


 17 16  0  0  0  0  0  0  0  0999 V2000     
   18.9207   16.5438   23.4020 C   0  0  0  0  0  0  0  0  0  0  0  0
   19.9249   16.1418   23.9590 O   0  5  0  0  0  0  0  0  0  0  0  0
   17.8073   16.1407   23.6771 O   0  0  0  0  0  0  0  0  0  0  0  0
   19.0347   17.5711   22.3316 C   0  0  0  0  0  0  0  0  0  0  0  0
   18.0995   17.8860   21.8742 H   0  0  0  0  0  0  0  0  0  0  0  0
   20.2071   18.1085   21.9246 C   0  0  0  0  0  0  0  0  0  0  0  0
   21.1495   17.8028   22.3783 H   0  0  0  0  0  0  0  0  0  0  0  0
   20.3149   19.1566   20.8370 C   0  0  0  0  0  0  0  0  0  0  0  0
   19.6236   18.9115   20.0194 H   0  0  0  0  0  0  0  0  0  0  0  0
   21.3229   19.1393   20.4011 H   0  0  0  0  0  0  0  0  0  0  0  0
   20.0013   20.5769   21.3565 C   0  0  0  0  0  0  0  0  0  0  0  0
   19.9912   21.2755   20.5084 H   0  0  0  0  0  0  0  0  0  0  0  0
   18.9927   20.5977   21.7921 H   0  0  0  0  0  0  0  0  0  0  0  0
   21.0285   21.0652   22.4001 C   0  0  0  0  0  0  0  0  0  0  0  0
   22.0436   21.0648   21.9820 H   0  0  0  0  0  0  0  0  0  0  0  0
   20.7950   22.0883   22.7220 H   0  0  0  0  0  0  0  0  0  0  0  0
   21.0242   20.4232   23.2906 H   0  0  0  0  0  0  0  0  0  0  0  0
  1  2  1  0  0  0  0
  1  3  2  0  0  0  0
  1  4  1  0  0  0  0
  4  5  1  0  0  0  0
  4  6  2  0  0  0  0
  6  7  1  0  0  0  0
  6  8  1  0  0  0  0
  8  9  1  0  0  0  0
  8 10  1  0  0  0  0
  8 11  1  0  0  0  0
 11 12  1  0  0  0  0
 11 13  1  0  0  0  0
 11 14  1  0  0  0  0
 14 15  1  0  0  0  0
 14 16  1  0  0  0  0
 14 17  1  0  0  0  0
M  END
> <VConfSearch Rank>
287

> <Conf_Id>
3

> <Delta U+W>
0.531

> <U+W>
-52.878

> <U>
10.067

> <W>
-62.945

> <W(PB)>
-64.982

> <W(SA)>
2.037

> <Valence>
2.779

> <Coulomb>
6.474

> <VdW>
0.815

> <VdW6>
-5.088

> <VdW12>
5.902

> <Bond>
0.078

> <Angle>
2.651

> <Pdih>
0.050

> <Idih>
0.000

> <Tether>
0.000

$$$$
VeraChem MOL file


 17 16  0  0  0  0  0  0  0  0999 V2000     
   18.0967   17.9041   24.1146 C   0  0  0  0  0  0  0  0  0  0  0  0
   17.5365   18.4324   25.0553 O   0  5  0  0  0  0  0  0  0  0  0  0
   18.2732   16.7025   24.0413 O   0  0  0  0  0  0  0  0  0  0  0  0
   18.5754   18.7861   23.0160 C   0  0  0  0  0  0  0  0  0  0  0  0
   18.3854   19.8491   23.1449 H   0  0  0  0  0  0  0  0  0  0  0  0
   19.2153   18.3358   21.9127 C   0  0  0  0  0  0  0  0  0  0  0  0
   19.4130   17.2728   21.7774 H   0  0  0  0  0  0  0  0  0  0  0  0
   19.7040   19.2366   20.7973 C   0  0  0  0  0  0  0  0  0  0  0  0
   19.2129   20.2178   20.8498 H   0  0  0  0  0  0  0  0  0  0  0  0
   19.4136   18.8012   19.8318 H   0  0  0  0  0  0  0  0  0  0  0  0
   21.2371   19.4216   20.8223 C   0  0  0  0  0  0  0  0  0  0  0  0
   21.7291   18.4403   20.7725 H   0  0  0  0  0  0  0  0  0  0  0  0
   21.5463   19.9736   19.9241 H   0  0  0  0  0  0  0  0  0  0  0  0
   21.7229   20.1843   22.0733 C   0  0  0  0  0  0  0  0  0  0  0  0
   21.4882   19.6300   22.9913 H   0  0  0  0  0  0  0  0  0  0  0  0
   22.8101   20.3312   22.0379 H   0  0  0  0  0  0  0  0  0  0  0  0
   21.2491   21.1724   22.1393 H   0  0  0  0  0  0  0  0  0  0  0  0
  1  2  1  0  0  0  0
  1  3  2  0  0  0  0
  1  4  1  0  0  0  0
  4  5  1  0  0  0  0
  4  6  2  0  0  0  0
  6  7  1  0  0  0  0
  6  8  1  0  0  0  0
  8  9  1  0  0  0  0
  8 10  1  0  0  0  0
  8 11  1  0  0  0  0
 11 12  1  0  0  0  0
 11 13  1  0  0  0  0
 11 14  1  0  0  0  0
 14 15  1  0  0  0  0
 14 16  1  0  0  0  0
 14 17  1  0  0  0  0
M  END
> <VConfSearch Rank>
288

> <Conf_Id>
45

> <Delta U+W>
0.562

> <U+W>
-52.846

> <U>
10.243

> <W>
-63.089

> <W(PB)>
-65.116

> <W(SA)>
2.026

> <Valence>
2.822

> <Coulomb>
6.637

> <VdW>
0.785

> <VdW6>
-5.216

> <VdW12>
6.001

> <Bond>
0.080

> <Angle>
2.678

> <Pdih>
0.064

> <Idih>
0.000

> <Tether>
0.000

$$$$
VeraChem MOL file


 17 16  0  0  0  0  0  0  0  0999 V2000     
   17.3693   17.2864   20.8460 C   0  0  0  0  0  0  0  0  0  0  0  0
   16.3088   17.0668   21.3981 O   0  5  0  0  0  0  0  0  0  0  0  0
   17.7463   16.6668   19.8690 O   0  0  0  0  0  0  0  0  0  0  0  0
   18.2260   18.3659   21.4071 C   0  0  0  0  0  0  0  0  0  0  0  0
   17.8305   18.8801   22.2801 H   0  0  0  0  0  0  0  0  0  0  0  0
   19.4283   18.7163   20.8963 C   0  0  0  0  0  0  0  0  0  0  0  0
   19.8350   18.2061   20.0234 H   0  0  0  0  0  0  0  0  0  0  0  0
   20.2943   19.8140   21.4744 C   0  0  0  0  0  0  0  0  0  0  0  0
   19.6663   20.6513   21.8081 H   0  0  0  0  0  0  0  0  0  0  0  0
   20.9551   20.2115   20.6922 H   0  0  0  0  0  0  0  0  0  0  0  0
   21.1432   19.2976   22.6540 C   0  0  0  0  0  0  0  0  0  0  0  0
   20.4833   18.9034   23.4393 H   0  0  0  0  0  0  0  0  0  0  0  0
   21.7719   18.4616   22.3173 H   0  0  0  0  0  0  0  0  0  0  0  0
   22.0360   20.4084   23.2429 C   0  0  0  0  0  0  0  0  0  0  0  0
   22.7286   20.7987   22.4857 H   0  0  0  0  0  0  0  0  0  0  0  0
   21.4290   21.2439   23.6156 H   0  0  0  0  0  0  0  0  0  0  0  0
   22.6318   20.0224   24.0802 H   0  0  0  0  0  0  0  0  0  0  0  0
  1  2  1  0  0  0  0
  1  3  2  0  0  0  0
  1  4  1  0  0  0  0
  4  5  1  0  0  0  0
  4  6  2  0  0  0  0
  6  7  1  0  0  0  0
  6  8  1  0  0  0  0
  8  9  1  0  0  0  0
  8 10  1  0  0  0  0
  8 11  1  0  0  0  0
 11 12  1  0  0  0  0
 11 13  1  0  0  0  0
 11 14  1  0  0  0  0
 14 15  1  0  0  0  0
 14 16  1  0  0  0  0
 14 17  1  0  0  0  0
M  END
> <VConfSearch Rank>
289

> <Conf_Id>
36

> <Delta U+W>
0.000

> <U+W>
-53.409

> <U>
9.048

> <W>
-62.457

> <W(PB)>
-64.540

> <W(SA)>
2.084

> <Valence>
2.652

> <Coulomb>
5.578

> <VdW>
0.818

> <VdW6>
-4.534

> <VdW12>
5.352

> <Bond>
0.063

> <Angle>
2.579

> <Pdih>
0.010

> <Idih>
0.000

> <Tether>
0.000

$$$$
VeraChem MOL file


 17 16  0  0  0  0  0  0  0  0999 V2000     
   19.2401   16.1395   23.3468 C   0  0  0  0  0  0  0  0  0  0  0  0
   18.0912   16.2275   23.7375 O   0  5  0  0  0  0  0  0  0  0  0  0
   19.9705   15.2155   23.6473 O   0  0  0  0  0  0  0  0  0  0  0  0
   19.7977   17.1963   22.4600 C   0  0  0  0  0  0  0  0  0  0  0  0
   20.8300   17.0572   22.1468 H   0  0  0  0  0  0  0  0  0  0  0  0
   19.1005   18.2792   22.0473 C   0  0  0  0  0  0  0  0  0  0  0  0
   18.0664   18.4296   22.3568 H   0  0  0  0  0  0  0  0  0  0  0  0
   19.6757   19.3504   21.1468 C   0  0  0  0  0  0  0  0  0  0  0  0
   18.8621   19.8518   20.6055 H   0  0  0  0  0  0  0  0  0  0  0  0
   20.3226   18.8936   20.3855 H   0  0  0  0  0  0  0  0  0  0  0  0
   20.4774   20.3921   21.9539 C   0  0  0  0  0  0  0  0  0  0  0  0
   19.8277   20.8492   22.7133 H   0  0  0  0  0  0  0  0  0  0  0  0
   21.2944   19.8926   22.4929 H   0  0  0  0  0  0  0  0  0  0  0  0
   21.0593   21.4927   21.0443 C   0  0  0  0  0  0  0  0  0  0  0  0
   20.2602   22.0298   20.5167 H   0  0  0  0  0  0  0  0  0  0  0  0
   21.6257   22.2239   21.6357 H   0  0  0  0  0  0  0  0  0  0  0  0
   21.7378   21.0648   20.2947 H   0  0  0  0  0  0  0  0  0  0  0  0
  1  2  1  0  0  0  0
  1  3  2  0  0  0  0
  1  4  1  0  0  0  0
  4  5  1  0  0  0  0
  4  6  2  0  0  0  0
  6  7  1  0  0  0  0
  6  8  1  0  0  0  0
  8  9  1  0  0  0  0
  8 10  1  0  0  0  0
  8 11  1  0  0  0  0
 11 12  1  0  0  0  0
 11 13  1  0  0  0  0
 11 14  1  0  0  0  0
 14 15  1  0  0  0  0
 14 16  1  0  0  0  0
 14 17  1  0  0  0  0
M  END
> <VConfSearch Rank>
290

> <Conf_Id>
1

> <Delta U+W>
0.030

> <U+W>
-53.378

> <U>
9.048

> <W>
-62.426

> <W(PB)>
-64.506

> <W(SA)>
2.080

> <Valence>
2.652

> <Coulomb>
5.578

> <VdW>
0.818

> <VdW6>
-4.535

> <VdW12>
5.352

> <Bond>
0.063

> <Angle>
2.579

> <Pdih>
0.010

> <Idih>
0.000

> <Tether>
0.000

$$$$
VeraChem MOL file


 17 16  0  0  0  0  0  0  0  0999 V2000     
   18.9974   16.2718   21.3216 C   0  0  0  0  0  0  0  0  0  0  0  0
   18.0398   16.5582   20.6278 O   0  5  0  0  0  0  0  0  0  0  0  0
   19.4872   15.1593   21.3435 O   0  0  0  0  0  0  0  0  0  0  0  0
   19.6114   17.3104   22.1924 C   0  0  0  0  0  0  0  0  0  0  0  0
   20.4630   16.9883   22.7872 H   0  0  0  0  0  0  0  0  0  0  0  0
   19.1719   18.5871   22.2673 C   0  0  0  0  0  0  0  0  0  0  0  0
   18.3216   18.9214   21.6732 H   0  0  0  0  0  0  0  0  0  0  0  0
   19.8044   19.6398   23.1532 C   0  0  0  0  0  0  0  0  0  0  0  0
   20.0667   19.1959   24.1231 H   0  0  0  0  0  0  0  0  0  0  0  0
   19.0763   20.4339   23.3669 H   0  0  0  0  0  0  0  0  0  0  0  0
   21.0707   20.2572   22.5200 C   0  0  0  0  0  0  0  0  0  0  0  0
   21.5431   20.9322   23.2468 H   0  0  0  0  0  0  0  0  0  0  0  0
   21.8017   19.4651   22.3062 H   0  0  0  0  0  0  0  0  0  0  0  0
   20.7627   21.0430   21.2276 C   0  0  0  0  0  0  0  0  0  0  0  0
   20.0428   21.8491   21.4203 H   0  0  0  0  0  0  0  0  0  0  0  0
   21.6777   21.4953   20.8237 H   0  0  0  0  0  0  0  0  0  0  0  0
   20.3430   20.3858   20.4549 H   0  0  0  0  0  0  0  0  0  0  0  0
  1  2  1  0  0  0  0
  1  3  2  0  0  0  0
  1  4  1  0  0  0  0
  4  5  1  0  0  0  0
  4  6  2  0  0  0  0
  6  7  1  0  0  0  0
  6  8  1  0  0  0  0
  8  9  1  0  0  0  0
  8 10  1  0  0  0  0
  8 11  1  0  0  0  0
 11 12  1  0  0  0  0
 11 13  1  0  0  0  0
 11 14  1  0  0  0  0
 14 15  1  0  0  0  0
 14 16  1  0  0  0  0
 14 17  1  0  0  0  0
M  END
> <VConfSearch Rank>
291

> <Conf_Id>
3

> <Delta U+W>
0.531

> <U+W>
-52.878

> <U>
10.067

> <W>
-62.945

> <W(PB)>
-64.982

> <W(SA)>
2.037

> <Valence>
2.779

> <Coulomb>
6.474

> <VdW>
0.815

> <VdW6>
-5.088

> <VdW12>
5.902

> <Bond>
0.078

> <Angle>
2.651

> <Pdih>
0.050

> <Idih>
0.000

> <Tether>
0.000

$$$$
VeraChem MOL file


 17 16  0  0  0  0  0  0  0  0999 V2000     
   18.8399   20.4680   24.5163 C   0  0  0  0  0  0  0  0  0  0  0  0
   19.3547   20.6771   25.5976 O   0  5  0  0  0  0  0  0  0  0  0  0
   17.6348   20.4639   24.3484 O   0  0  0  0  0  0  0  0  0  0  0  0
   19.7440   20.2116   23.3627 C   0  0  0  0  0  0  0  0  0  0  0  0
   20.8090   20.2297   23.5821 H   0  0  0  0  0  0  0  0  0  0  0  0
   19.3101   19.9624   22.1061 C   0  0  0  0  0  0  0  0  0  0  0  0
   18.2447   19.9388   21.8783 H   0  0  0  0  0  0  0  0  0  0  0  0
   20.2330   19.6990   20.9342 C   0  0  0  0  0  0  0  0  0  0  0  0
   21.2535   20.0350   21.1629 H   0  0  0  0  0  0  0  0  0  0  0  0
   19.9003   20.2963   20.0748 H   0  0  0  0  0  0  0  0  0  0  0  0
   20.2558   18.2087   20.5295 C   0  0  0  0  0  0  0  0  0  0  0  0
   19.2349   17.8711   20.3031 H   0  0  0  0  0  0  0  0  0  0  0  0
   20.8357   18.0978   19.6029 H   0  0  0  0  0  0  0  0  0  0  0  0
   20.8724   17.3066   21.6198 C   0  0  0  0  0  0  0  0  0  0  0  0
   20.2810   17.3414   22.5440 H   0  0  0  0  0  0  0  0  0  0  0  0
   20.9080   16.2627   21.2825 H   0  0  0  0  0  0  0  0  0  0  0  0
   21.8970   17.6216   21.8567 H   0  0  0  0  0  0  0  0  0  0  0  0
  1  2  1  0  0  0  0
  1  3  2  0  0  0  0
  1  4  1  0  0  0  0
  4  5  1  0  0  0  0
  4  6  2  0  0  0  0
  6  7  1  0  0  0  0
  6  8  1  0  0  0  0
  8  9  1  0  0  0  0
  8 10  1  0  0  0  0
  8 11  1  0  0  0  0
 11 12  1  0  0  0  0
 11 13  1  0  0  0  0
 11 14  1  0  0  0  0
 14 15  1  0  0  0  0
 14 16  1  0  0  0  0
 14 17  1  0  0  0  0
M  END
> <VConfSearch Rank>
292

> <Conf_Id>
45

> <Delta U+W>
0.562

> <U+W>
-52.846

> <U>
10.243

> <W>
-63.089

> <W(PB)>
-65.116

> <W(SA)>
2.026

> <Valence>
2.822

> <Coulomb>
6.637

> <VdW>
0.785

> <VdW6>
-5.216

> <VdW12>
6.001

> <Bond>
0.080

> <Angle>
2.678

> <Pdih>
0.064

> <Idih>
0.000

> <Tether>
0.000

$$$$
VeraChem MOL file


 17 16  0  0  0  0  0  0  0  0999 V2000     
   22.2009   21.5125   21.0368 C   0  0  0  0  0  0  0  0  0  0  0  0
   22.6363   21.7922   19.9368 O   0  5  0  0  0  0  0  0  0  0  0  0
   22.6882   21.9370   22.0677 O   0  0  0  0  0  0  0  0  0  0  0  0
   21.0187   20.6111   21.0994 C   0  0  0  0  0  0  0  0  0  0  0  0
   20.6325   20.2677   20.1425 H   0  0  0  0  0  0  0  0  0  0  0  0
   20.4318   20.2167   22.2523 C   0  0  0  0  0  0  0  0  0  0  0  0
   20.8121   20.5528   23.2168 H   0  0  0  0  0  0  0  0  0  0  0  0
   19.2310   19.2978   22.3074 C   0  0  0  0  0  0  0  0  0  0  0  0
   18.5389   19.5348   21.4878 H   0  0  0  0  0  0  0  0  0  0  0  0
   18.6794   19.4691   23.2416 H   0  0  0  0  0  0  0  0  0  0  0  0
   19.6525   17.8166   22.2209 C   0  0  0  0  0  0  0  0  0  0  0  0
   20.2009   17.6427   21.2847 H   0  0  0  0  0  0  0  0  0  0  0  0
   20.3430   17.5815   23.0428 H   0  0  0  0  0  0  0  0  0  0  0  0
   18.4347   16.8730   22.2859 C   0  0  0  0  0  0  0  0  0  0  0  0
   17.8858   17.0040   23.2276 H   0  0  0  0  0  0  0  0  0  0  0  0
   17.7428   17.0669   21.4558 H   0  0  0  0  0  0  0  0  0  0  0  0
   18.7541   15.8246   22.2229 H   0  0  0  0  0  0  0  0  0  0  0  0
  1  2  1  0  0  0  0
  1  3  2  0  0  0  0
  1  4  1  0  0  0  0
  4  5  1  0  0  0  0
  4  6  2  0  0  0  0
  6  7  1  0  0  0  0
  6  8  1  0  0  0  0
  8  9  1  0  0  0  0
  8 10  1  0  0  0  0
  8 11  1  0  0  0  0
 11 12  1  0  0  0  0
 11 13  1  0  0  0  0
 11 14  1  0  0  0  0
 14 15  1  0  0  0  0
 14 16  1  0  0  0  0
 14 17  1  0  0  0  0
M  END
> <VConfSearch Rank>
293

> <Conf_Id>
36

> <Delta U+W>
0.000

> <U+W>
-53.409

> <U>
9.048

> <W>
-62.457

> <W(PB)>
-64.540

> <W(SA)>
2.084

> <Valence>
2.652

> <Coulomb>
5.578

> <VdW>
0.818

> <VdW6>
-4.534

> <VdW12>
5.352

> <Bond>
0.063

> <Angle>
2.579

> <Pdih>
0.010

> <Idih>
0.000

> <Tether>
0.000

$$$$
VeraChem MOL file


 17 16  0  0  0  0  0  0  0  0999 V2000     
   23.1244   19.9142   22.9282 C   0  0  0  0  0  0  0  0  0  0  0  0
   23.7914   20.0773   21.9237 O   0  5  0  0  0  0  0  0  0  0  0  0
   23.6101   19.8595   24.0412 O   0  0  0  0  0  0  0  0  0  0  0  0
   21.6474   19.7743   22.8149 C   0  0  0  0  0  0  0  0  0  0  0  0
   21.1111   19.6312   23.7502 H   0  0  0  0  0  0  0  0  0  0  0  0
   20.9742   19.8144   21.6426 C   0  0  0  0  0  0  0  0  0  0  0  0
   21.5018   19.9551   20.6994 H   0  0  0  0  0  0  0  0  0  0  0  0
   19.4719   19.6694   21.5359 C   0  0  0  0  0  0  0  0  0  0  0  0
   19.1196   20.1577   20.6173 H   0  0  0  0  0  0  0  0  0  0  0  0
   18.9842   20.1883   22.3724 H   0  0  0  0  0  0  0  0  0  0  0  0
   19.0497   18.1860   21.5264 C   0  0  0  0  0  0  0  0  0  0  0  0
   19.5370   17.6697   20.6876 H   0  0  0  0  0  0  0  0  0  0  0  0
   19.3979   17.6969   22.4468 H   0  0  0  0  0  0  0  0  0  0  0  0
   17.5203   18.0296   21.4086 C   0  0  0  0  0  0  0  0  0  0  0  0
   17.1493   18.4829   20.4800 H   0  0  0  0  0  0  0  0  0  0  0  0
   17.2393   16.9683   21.4034 H   0  0  0  0  0  0  0  0  0  0  0  0
   17.0099   18.5110   22.2531 H   0  0  0  0  0  0  0  0  0  0  0  0
  1  2  1  0  0  0  0
  1  3  2  0  0  0  0
  1  4  1  0  0  0  0
  4  5  1  0  0  0  0
  4  6  2  0  0  0  0
  6  7  1  0  0  0  0
  6  8  1  0  0  0  0
  8  9  1  0  0  0  0
  8 10  1  0  0  0  0
  8 11  1  0  0  0  0
 11 12  1  0  0  0  0
 11 13  1  0  0  0  0
 11 14  1  0  0  0  0
 14 15  1  0  0  0  0
 14 16  1  0  0  0  0
 14 17  1  0  0  0  0
M  END
> <VConfSearch Rank>
294

> <Conf_Id>
1

> <Delta U+W>
0.030

> <U+W>
-53.378

> <U>
9.048

> <W>
-62.426

> <W(PB)>
-64.506

> <W(SA)>
2.080

> <Valence>
2.652

> <Coulomb>
5.578

> <VdW>
0.818

> <VdW6>
-4.535

> <VdW12>
5.352

> <Bond>
0.063

> <Angle>
2.579

> <Pdih>
0.010

> <Idih>
0.000

> <Tether>
0.000

$$$$
VeraChem MOL file


 17 16  0  0  0  0  0  0  0  0999 V2000     
   21.4526   21.1565   23.8275 C   0  0  0  0  0  0  0  0  0  0  0  0
   22.3991   21.4369   23.1162 O   0  5  0  0  0  0  0  0  0  0  0  0
   21.1201   21.8338   24.7807 O   0  0  0  0  0  0  0  0  0  0  0  0
   20.6538   19.9344   23.5407 C   0  0  0  0  0  0  0  0  0  0  0  0
   19.8226   19.7414   24.2150 H   0  0  0  0  0  0  0  0  0  0  0  0
   20.9086   19.0911   22.5146 C   0  0  0  0  0  0  0  0  0  0  0  0
   21.7367   19.2767   21.8310 H   0  0  0  0  0  0  0  0  0  0  0  0
   20.0887   17.8510   22.2265 C   0  0  0  0  0  0  0  0  0  0  0  0
   19.8361   17.3491   23.1703 H   0  0  0  0  0  0  0  0  0  0  0  0
   20.6875   17.1339   21.6491 H   0  0  0  0  0  0  0  0  0  0  0  0
   18.7869   18.1723   21.4598 C   0  0  0  0  0  0  0  0  0  0  0  0
   18.1862   17.2565   21.3725 H   0  0  0  0  0  0  0  0  0  0  0  0
   18.1850   18.8887   22.0358 H   0  0  0  0  0  0  0  0  0  0  0  0
   19.0558   18.7357   20.0481 C   0  0  0  0  0  0  0  0  0  0  0  0
   19.6461   18.0298   19.4494 H   0  0  0  0  0  0  0  0  0  0  0  0
   18.1113   18.9207   19.5202 H   0  0  0  0  0  0  0  0  0  0  0  0
   19.6045   19.6852   20.0984 H   0  0  0  0  0  0  0  0  0  0  0  0
  1  2  1  0  0  0  0
  1  3  2  0  0  0  0
  1  4  1  0  0  0  0
  4  5  1  0  0  0  0
  4  6  2  0  0  0  0
  6  7  1  0  0  0  0
  6  8  1  0  0  0  0
  8  9  1  0  0  0  0
  8 10  1  0  0  0  0
  8 11  1  0  0  0  0
 11 12  1  0  0  0  0
 11 13  1  0  0  0  0
 11 14  1  0  0  0  0
 14 15  1  0  0  0  0
 14 16  1  0  0  0  0
 14 17  1  0  0  0  0
M  END
> <VConfSearch Rank>
295

> <Conf_Id>
3

> <Delta U+W>
0.531

> <U+W>
-52.878

> <U>
10.067

> <W>
-62.945

> <W(PB)>
-64.982

> <W(SA)>
2.037

> <Valence>
2.779

> <Coulomb>
6.474

> <VdW>
0.815

> <VdW6>
-5.088

> <VdW12>
5.902

> <Bond>
0.078

> <Angle>
2.651

> <Pdih>
0.050

> <Idih>
0.000

> <Tether>
0.000

$$$$
VeraChem MOL file


 17 16  0  0  0  0  0  0  0  0999 V2000     
   20.8318   21.2937   23.9668 C   0  0  0  0  0  0  0  0  0  0  0  0
   21.1643   21.2246   25.1340 O   0  5  0  0  0  0  0  0  0  0  0  0
   20.4432   22.3249   23.4508 O   0  0  0  0  0  0  0  0  0  0  0  0
   20.9156   20.0506   23.1534 C   0  0  0  0  0  0  0  0  0  0  0  0
   21.2707   19.1654   23.6760 H   0  0  0  0  0  0  0  0  0  0  0  0
   20.5766   19.9813   21.8458 C   0  0  0  0  0  0  0  0  0  0  0  0
   20.2164   20.8625   21.3155 H   0  0  0  0  0  0  0  0  0  0  0  0
   20.6604   18.7135   21.0212 C   0  0  0  0  0  0  0  0  0  0  0  0
   21.3015   17.9718   21.5167 H   0  0  0  0  0  0  0  0  0  0  0  0
   21.1430   18.9415   20.0614 H   0  0  0  0  0  0  0  0  0  0  0  0
   19.2702   18.0984   20.7489 C   0  0  0  0  0  0  0  0  0  0  0  0
   18.6273   18.8405   20.2555 H   0  0  0  0  0  0  0  0  0  0  0  0
   19.3800   17.2614   20.0456 H   0  0  0  0  0  0  0  0  0  0  0  0
   18.5843   17.5884   22.0343 C   0  0  0  0  0  0  0  0  0  0  0  0
   18.3987   18.4108   22.7373 H   0  0  0  0  0  0  0  0  0  0  0  0
   17.6183   17.1236   21.7981 H   0  0  0  0  0  0  0  0  0  0  0  0
   19.2066   16.8389   22.5404 H   0  0  0  0  0  0  0  0  0  0  0  0
  1  2  1  0  0  0  0
  1  3  2  0  0  0  0
  1  4  1  0  0  0  0
  4  5  1  0  0  0  0
  4  6  2  0  0  0  0
  6  7  1  0  0  0  0
  6  8  1  0  0  0  0
  8  9  1  0  0  0  0
  8 10  1  0  0  0  0
  8 11  1  0  0  0  0
 11 12  1  0  0  0  0
 11 13  1  0  0  0  0
 11 14  1  0  0  0  0
 14 15  1  0  0  0  0
 14 16  1  0  0  0  0
 14 17  1  0  0  0  0
M  END
> <VConfSearch Rank>
296

> <Conf_Id>
45

> <Delta U+W>
0.562

> <U+W>
-52.846

> <U>
10.243

> <W>
-63.089

> <W(PB)>
-65.116

> <W(SA)>
2.026

> <Valence>
2.822

> <Coulomb>
6.637

> <VdW>
0.785

> <VdW6>
-5.216

> <VdW12>
6.001

> <Bond>
0.080

> <Angle>
2.678

> <Pdih>
0.064

> <Idih>
0.000

> <Tether>
0.000

$$$$
VeraChem MOL file


 17 16  0  0  0  0  0  0  0  0999 V2000     
   18.2848   22.0159   21.6693 C   0  0  0  0  0  0  0  0  0  0  0  0
   17.7868   22.6919   22.5484 O   0  5  0  0  0  0  0  0  0  0  0  0
   18.0400   22.1824   20.4892 O   0  0  0  0  0  0  0  0  0  0  0  0
   19.2332   20.9451   22.0793 C   0  0  0  0  0  0  0  0  0  0  0  0
   19.4078   20.8497   23.1486 H   0  0  0  0  0  0  0  0  0  0  0  0
   19.8585   20.1188   21.2102 C   0  0  0  0  0  0  0  0  0  0  0  0
   19.6889   20.2041   20.1370 H   0  0  0  0  0  0  0  0  0  0  0  0
   20.8200   19.0308   21.6357 C   0  0  0  0  0  0  0  0  0  0  0  0
   21.4376   19.3820   22.4735 H   0  0  0  0  0  0  0  0  0  0  0  0
   21.5102   18.8069   20.8111 H   0  0  0  0  0  0  0  0  0  0  0  0
   20.0701   17.7464   22.0443 C   0  0  0  0  0  0  0  0  0  0  0  0
   19.3821   17.9679   22.8721 H   0  0  0  0  0  0  0  0  0  0  0  0
   19.4546   17.3960   21.2041 H   0  0  0  0  0  0  0  0  0  0  0  0
   21.0437   16.6293   22.4704 C   0  0  0  0  0  0  0  0  0  0  0  0
   21.7231   16.3658   21.6492 H   0  0  0  0  0  0  0  0  0  0  0  0
   21.6501   16.9434   23.3300 H   0  0  0  0  0  0  0  0  0  0  0  0
   20.4923   15.7244   22.7574 H   0  0  0  0  0  0  0  0  0  0  0  0
  1  2  1  0  0  0  0
  1  3  2  0  0  0  0
  1  4  1  0  0  0  0
  4  5  1  0  0  0  0
  4  6  2  0  0  0  0
  6  7  1  0  0  0  0
  6  8  1  0  0  0  0
  8  9  1  0  0  0  0
  8 10  1  0  0  0  0
  8 11  1  0  0  0  0
 11 12  1  0  0  0  0
 11 13  1  0  0  0  0
 11 14  1  0  0  0  0
 14 15  1  0  0  0  0
 14 16  1  0  0  0  0
 14 17  1  0  0  0  0
M  END
> <VConfSearch Rank>
297

> <Conf_Id>
36

> <Delta U+W>
0.000

> <U+W>
-53.409

> <U>
9.048

> <W>
-62.457

> <W(PB)>
-64.540

> <W(SA)>
2.084

> <Valence>
2.652

> <Coulomb>
5.578

> <VdW>
0.818

> <VdW6>
-4.534

> <VdW12>
5.352

> <Bond>
0.063

> <Angle>
2.579

> <Pdih>
0.010

> <Idih>
0.000

> <Tether>
0.000

$$$$
VeraChem MOL file


 17 16  0  0  0  0  0  0  0  0999 V2000     
   20.2350   20.0437   18.6848 C   0  0  0  0  0  0  0  0  0  0  0  0
   20.2759   19.0258   18.0196 O   0  5  0  0  0  0  0  0  0  0  0  0
   20.4576   21.1449   18.2205 O   0  0  0  0  0  0  0  0  0  0  0  0
   19.8986   19.9629   20.1320 C   0  0  0  0  0  0  0  0  0  0  0  0
   19.8790   20.9089   20.6683 H   0  0  0  0  0  0  0  0  0  0  0  0
   19.6297   18.8066   20.7799 C   0  0  0  0  0  0  0  0  0  0  0  0
   19.6487   17.8529   20.2528 H   0  0  0  0  0  0  0  0  0  0  0  0
   19.2903   18.7330   22.2525 C   0  0  0  0  0  0  0  0  0  0  0  0
   18.7016   17.8269   22.4494 H   0  0  0  0  0  0  0  0  0  0  0  0
   18.6567   19.5848   22.5350 H   0  0  0  0  0  0  0  0  0  0  0  0
   20.5637   18.7204   23.1228 C   0  0  0  0  0  0  0  0  0  0  0  0
   21.1947   17.8663   22.8400 H   0  0  0  0  0  0  0  0  0  0  0  0
   21.1518   19.6283   22.9300 H   0  0  0  0  0  0  0  0  0  0  0  0
   20.2264   18.6361   24.6250 C   0  0  0  0  0  0  0  0  0  0  0  0
   19.6648   17.7201   24.8509 H   0  0  0  0  0  0  0  0  0  0  0  0
   21.1440   18.6282   25.2276 H   0  0  0  0  0  0  0  0  0  0  0  0
   19.6212   19.4960   24.9406 H   0  0  0  0  0  0  0  0  0  0  0  0
  1  2  1  0  0  0  0
  1  3  2  0  0  0  0
  1  4  1  0  0  0  0
  4  5  1  0  0  0  0
  4  6  2  0  0  0  0
  6  7  1  0  0  0  0
  6  8  1  0  0  0  0
  8  9  1  0  0  0  0
  8 10  1  0  0  0  0
  8 11  1  0  0  0  0
 11 12  1  0  0  0  0
 11 13  1  0  0  0  0
 11 14  1  0  0  0  0
 14 15  1  0  0  0  0
 14 16  1  0  0  0  0
 14 17  1  0  0  0  0
M  END
> <VConfSearch Rank>
298

> <Conf_Id>
1

> <Delta U+W>
0.030

> <U+W>
-53.378

> <U>
9.048

> <W>
-62.426

> <W(PB)>
-64.506

> <W(SA)>
2.080

> <Valence>
2.652

> <Coulomb>
5.578

> <VdW>
0.818

> <VdW6>
-4.535

> <VdW12>
5.352

> <Bond>
0.063

> <Angle>
2.579

> <Pdih>
0.010

> <Idih>
0.000

> <Tether>
0.000

$$$$
VeraChem MOL file


 17 16  0  0  0  0  0  0  0  0999 V2000     
   20.5885   20.1543   19.2156 C   0  0  0  0  0  0  0  0  0  0  0  0
   21.1155   21.2177   19.4839 O   0  5  0  0  0  0  0  0  0  0  0  0
   20.6537   19.6450   18.1137 O   0  0  0  0  0  0  0  0  0  0  0  0
   19.8222   19.4282   20.2642 C   0  0  0  0  0  0  0  0  0  0  0  0
   19.3758   18.4848   19.9584 H   0  0  0  0  0  0  0  0  0  0  0  0
   19.6685   19.8756   21.5312 C   0  0  0  0  0  0  0  0  0  0  0  0
   20.1143   20.8178   21.8492 H   0  0  0  0  0  0  0  0  0  0  0  0
   18.8903   19.1291   22.5942 C   0  0  0  0  0  0  0  0  0  0  0  0
   17.9789   18.7035   22.1528 H   0  0  0  0  0  0  0  0  0  0  0  0
   18.5559   19.8288   23.3720 H   0  0  0  0  0  0  0  0  0  0  0  0
   19.7168   17.9954   23.2402 C   0  0  0  0  0  0  0  0  0  0  0  0
   19.0720   17.4250   23.9228 H   0  0  0  0  0  0  0  0  0  0  0  0
   20.0518   17.2930   22.4645 H   0  0  0  0  0  0  0  0  0  0  0  0
   20.9368   18.5254   24.0235 C   0  0  0  0  0  0  0  0  0  0  0  0
   20.6243   19.2208   24.8134 H   0  0  0  0  0  0  0  0  0  0  0  0
   21.4810   17.6977   24.4963 H   0  0  0  0  0  0  0  0  0  0  0  0
   21.6353   19.0518   23.3600 H   0  0  0  0  0  0  0  0  0  0  0  0
  1  2  1  0  0  0  0
  1  3  2  0  0  0  0
  1  4  1  0  0  0  0
  4  5  1  0  0  0  0
  4  6  2  0  0  0  0
  6  7  1  0  0  0  0
  6  8  1  0  0  0  0
  8  9  1  0  0  0  0
  8 10  1  0  0  0  0
  8 11  1  0  0  0  0
 11 12  1  0  0  0  0
 11 13  1  0  0  0  0
 11 14  1  0  0  0  0
 14 15  1  0  0  0  0
 14 16  1  0  0  0  0
 14 17  1  0  0  0  0
M  END
> <VConfSearch Rank>
299

> <Conf_Id>
3

> <Delta U+W>
0.531

> <U+W>
-52.878

> <U>
10.067

> <W>
-62.945

> <W(PB)>
-64.982

> <W(SA)>
2.037

> <Valence>
2.779

> <Coulomb>
6.474

> <VdW>
0.815

> <VdW6>
-5.088

> <VdW12>
5.902

> <Bond>
0.078

> <Angle>
2.651

> <Pdih>
0.050

> <Idih>
0.000

> <Tether>
0.000

$$$$
VeraChem MOL file


 17 16  0  0  0  0  0  0  0  0999 V2000     
   21.0851   21.3591   23.7452 C   0  0  0  0  0  0  0  0  0  0  0  0
   20.8350   21.6685   24.8940 O   0  5  0  0  0  0  0  0  0  0  0  0
   21.5738   22.1337   22.9442 O   0  0  0  0  0  0  0  0  0  0  0  0
   20.7739   19.9660   23.3253 C   0  0  0  0  0  0  0  0  0  0  0  0
   20.3390   19.3265   24.0900 H   0  0  0  0  0  0  0  0  0  0  0  0
   20.9970   19.4865   22.0804 C   0  0  0  0  0  0  0  0  0  0  0  0
   21.4290   20.1215   21.3072 H   0  0  0  0  0  0  0  0  0  0  0  0
   20.6765   18.0685   21.6551 C   0  0  0  0  0  0  0  0  0  0  0  0
   20.5419   17.4227   22.5335 H   0  0  0  0  0  0  0  0  0  0  0  0
   21.5323   17.6580   21.1027 H   0  0  0  0  0  0  0  0  0  0  0  0
   19.4205   17.9948   20.7595 C   0  0  0  0  0  0  0  0  0  0  0  0
   19.5533   18.6426   19.8819 H   0  0  0  0  0  0  0  0  0  0  0  0
   19.3110   16.9698   20.3793 H   0  0  0  0  0  0  0  0  0  0  0  0
   18.1317   18.3931   21.5100 C   0  0  0  0  0  0  0  0  0  0  0  0
   18.1777   19.4358   21.8504 H   0  0  0  0  0  0  0  0  0  0  0  0
   17.2566   18.2914   20.8553 H   0  0  0  0  0  0  0  0  0  0  0  0
   17.9748   17.7529   22.3878 H   0  0  0  0  0  0  0  0  0  0  0  0
  1  2  1  0  0  0  0
  1  3  2  0  0  0  0
  1  4  1  0  0  0  0
  4  5  1  0  0  0  0
  4  6  2  0  0  0  0
  6  7  1  0  0  0  0
  6  8  1  0  0  0  0
  8  9  1  0  0  0  0
  8 10  1  0  0  0  0
  8 11  1  0  0  0  0
 11 12  1  0  0  0  0
 11 13  1  0  0  0  0
 11 14  1  0  0  0  0
 14 15  1  0  0  0  0
 14 16  1  0  0  0  0
 14 17  1  0  0  0  0
M  END
> <VConfSearch Rank>
300

> <Conf_Id>
45

> <Delta U+W>
0.562

> <U+W>
-52.846

> <U>
10.243

> <W>
-63.089

> <W(PB)>
-65.116

> <W(SA)>
2.026

> <Valence>
2.822

> <Coulomb>
6.637

> <VdW>
0.785

> <VdW6>
-5.216

> <VdW12>
6.001

> <Bond>
0.080

> <Angle>
2.678

> <Pdih>
0.064

> <Idih>
0.000

> <Tether>
0.000

$$$$
VeraChem MOL file


 17 16  0  0  0  0  0  0  0  0999 V2000     
   22.1586   16.6294   21.2084 C   0  0  0  0  0  0  0  0  0  0  0  0
   22.8221   15.9490   21.9664 O   0  5  0  0  0  0  0  0  0  0  0  0
   22.3514   16.6598   20.0075 O   0  0  0  0  0  0  0  0  0  0  0  0
   21.0675   17.4512   21.7986 C   0  0  0  0  0  0  0  0  0  0  0  0
   20.9487   17.3782   22.8772 H   0  0  0  0  0  0  0  0  0  0  0  0
   20.2535   18.2540   21.0761 C   0  0  0  0  0  0  0  0  0  0  0  0
   20.3653   18.3365   19.9952 H   0  0  0  0  0  0  0  0  0  0  0  0
   19.1475   19.0883   21.6845 C   0  0  0  0  0  0  0  0  0  0  0  0
   18.6557   18.5288   22.4919 H   0  0  0  0  0  0  0  0  0  0  0  0
   18.3770   19.2862   20.9271 H   0  0  0  0  0  0  0  0  0  0  0  0
   19.6884   20.4250   22.2319 C   0  0  0  0  0  0  0  0  0  0  0  0
   20.4565   20.2288   22.9929 H   0  0  0  0  0  0  0  0  0  0  0  0
   20.1780   20.9837   21.4221 H   0  0  0  0  0  0  0  0  0  0  0  0
   18.5656   21.2856   22.8453 C   0  0  0  0  0  0  0  0  0  0  0  0
   17.7990   21.5234   22.0963 H   0  0  0  0  0  0  0  0  0  0  0  0
   18.0797   20.7615   23.6788 H   0  0  0  0  0  0  0  0  0  0  0  0
   18.9692   22.2316   23.2292 H   0  0  0  0  0  0  0  0  0  0  0  0
  1  2  1  0  0  0  0
  1  3  2  0  0  0  0
  1  4  1  0  0  0  0
  4  5  1  0  0  0  0
  4  6  2  0  0  0  0
  6  7  1  0  0  0  0
  6  8  1  0  0  0  0
  8  9  1  0  0  0  0
  8 10  1  0  0  0  0
  8 11  1  0  0  0  0
 11 12  1  0  0  0  0
 11 13  1  0  0  0  0
 11 14  1  0  0  0  0
 14 15  1  0  0  0  0
 14 16  1  0  0  0  0
 14 17  1  0  0  0  0
M  END
> <VConfSearch Rank>
301

> <Conf_Id>
36

> <Delta U+W>
0.000

> <U+W>
-53.409

> <U>
9.048

> <W>
-62.457

> <W(PB)>
-64.540

> <W(SA)>
2.084

> <Valence>
2.652

> <Coulomb>
5.578

> <VdW>
0.818

> <VdW6>
-4.534

> <VdW12>
5.352

> <Bond>
0.063

> <Angle>
2.579

> <Pdih>
0.010

> <Idih>
0.000

> <Tether>
0.000

$$$$
VeraChem MOL file


 17 16  0  0  0  0  0  0  0  0999 V2000     
   18.7754   17.2623   24.4613 C   0  0  0  0  0  0  0  0  0  0  0  0
   18.5219   18.0389   25.3630 O   0  5  0  0  0  0  0  0  0  0  0  0
   18.7637   16.0555   24.6068 O   0  0  0  0  0  0  0  0  0  0  0  0
   19.1162   17.7889   23.1120 C   0  0  0  0  0  0  0  0  0  0  0  0
   19.3319   17.0418   22.3515 H   0  0  0  0  0  0  0  0  0  0  0  0
   19.1681   19.1056   22.8077 C   0  0  0  0  0  0  0  0  0  0  0  0
   18.9560   19.8626   23.5625 H   0  0  0  0  0  0  0  0  0  0  0  0
   19.5174   19.6329   21.4332 C   0  0  0  0  0  0  0  0  0  0  0  0
   19.0815   20.6323   21.3010 H   0  0  0  0  0  0  0  0  0  0  0  0
   19.0707   18.9923   20.6606 H   0  0  0  0  0  0  0  0  0  0  0  0
   21.0447   19.7050   21.2304 C   0  0  0  0  0  0  0  0  0  0  0  0
   21.4890   20.3479   22.0030 H   0  0  0  0  0  0  0  0  0  0  0  0
   21.4820   18.7050   21.3584 H   0  0  0  0  0  0  0  0  0  0  0  0
   21.4091   20.2503   19.8350 C   0  0  0  0  0  0  0  0  0  0  0  0
   21.0104   21.2633   19.6924 H   0  0  0  0  0  0  0  0  0  0  0  0
   22.4988   20.2943   19.7094 H   0  0  0  0  0  0  0  0  0  0  0  0
   21.0025   19.6071   19.0434 H   0  0  0  0  0  0  0  0  0  0  0  0
  1  2  1  0  0  0  0
  1  3  2  0  0  0  0
  1  4  1  0  0  0  0
  4  5  1  0  0  0  0
  4  6  2  0  0  0  0
  6  7  1  0  0  0  0
  6  8  1  0  0  0  0
  8  9  1  0  0  0  0
  8 10  1  0  0  0  0
  8 11  1  0  0  0  0
 11 12  1  0  0  0  0
 11 13  1  0  0  0  0
 11 14  1  0  0  0  0
 14 15  1  0  0  0  0
 14 16  1  0  0  0  0
 14 17  1  0  0  0  0
M  END
> <VConfSearch Rank>
302

> <Conf_Id>
1

> <Delta U+W>
0.030

> <U+W>
-53.378

> <U>
9.048

> <W>
-62.426

> <W(PB)>
-64.506

> <W(SA)>
2.080

> <Valence>
2.652

> <Coulomb>
5.578

> <VdW>
0.818

> <VdW6>
-4.535

> <VdW12>
5.352

> <Bond>
0.063

> <Angle>
2.579

> <Pdih>
0.010

> <Idih>
0.000

> <Tether>
0.000

$$$$
VeraChem MOL file


 17 16  0  0  0  0  0  0  0  0999 V2000     
   22.9944   19.8675   22.2072 C   0  0  0  0  0  0  0  0  0  0  0  0
   23.3056   19.3340   23.2555 O   0  5  0  0  0  0  0  0  0  0  0  0
   23.8127   20.2622   21.3994 O   0  0  0  0  0  0  0  0  0  0  0  0
   21.5560   20.0597   21.8784 C   0  0  0  0  0  0  0  0  0  0  0  0
   21.3470   20.5435   20.9271 H   0  0  0  0  0  0  0  0  0  0  0  0
   20.5406   19.6691   22.6818 C   0  0  0  0  0  0  0  0  0  0  0  0
   20.7386   19.1804   23.6355 H   0  0  0  0  0  0  0  0  0  0  0  0
   19.0787   19.8646   22.3387 C   0  0  0  0  0  0  0  0  0  0  0  0
   18.9368   20.8530   21.8811 H   0  0  0  0  0  0  0  0  0  0  0  0
   18.4767   19.8632   23.2573 H   0  0  0  0  0  0  0  0  0  0  0  0
   18.5514   18.7797   21.3741 C   0  0  0  0  0  0  0  0  0  0  0  0
   17.5233   19.0307   21.0788 H   0  0  0  0  0  0  0  0  0  0  0  0
   19.1511   18.7795   20.4533 H   0  0  0  0  0  0  0  0  0  0  0  0
   18.5656   17.3706   22.0041 C   0  0  0  0  0  0  0  0  0  0  0  0
   17.9614   17.3440   22.9202 H   0  0  0  0  0  0  0  0  0  0  0  0
   18.1540   16.6312   21.3049 H   0  0  0  0  0  0  0  0  0  0  0  0
   19.5876   17.0607   22.2583 H   0  0  0  0  0  0  0  0  0  0  0  0
  1  2  1  0  0  0  0
  1  3  2  0  0  0  0
  1  4  1  0  0  0  0
  4  5  1  0  0  0  0
  4  6  2  0  0  0  0
  6  7  1  0  0  0  0
  6  8  1  0  0  0  0
  8  9  1  0  0  0  0
  8 10  1  0  0  0  0
  8 11  1  0  0  0  0
 11 12  1  0  0  0  0
 11 13  1  0  0  0  0
 11 14  1  0  0  0  0
 14 15  1  0  0  0  0
 14 16  1  0  0  0  0
 14 17  1  0  0  0  0
M  END
> <VConfSearch Rank>
303

> <Conf_Id>
3

> <Delta U+W>
0.531

> <U+W>
-52.878

> <U>
10.067

> <W>
-62.945

> <W(PB)>
-64.982

> <W(SA)>
2.037

> <Valence>
2.779

> <Coulomb>
6.474

> <VdW>
0.815

> <VdW6>
-5.088

> <VdW12>
5.902

> <Bond>
0.078

> <Angle>
2.651

> <Pdih>
0.050

> <Idih>
0.000

> <Tether>
0.000

$$$$
VeraChem MOL file


 17 16  0  0  0  0  0  0  0  0999 V2000     
   17.2366   17.9861   21.4693 C   0  0  0  0  0  0  0  0  0  0  0  0
   16.2580   18.5436   21.0119 O   0  5  0  0  0  0  0  0  0  0  0  0
   17.1706   16.9472   22.0993 O   0  0  0  0  0  0  0  0  0  0  0  0
   18.5620   18.6195   21.2324 C   0  0  0  0  0  0  0  0  0  0  0  0
   18.5495   19.5456   20.6625 H   0  0  0  0  0  0  0  0  0  0  0  0
   19.7315   18.1116   21.6842 C   0  0  0  0  0  0  0  0  0  0  0  0
   19.7526   17.1862   22.2591 H   0  0  0  0  0  0  0  0  0  0  0  0
   21.0790   18.7603   21.4437 C   0  0  0  0  0  0  0  0  0  0  0  0
   21.0160   19.4898   20.6249 H   0  0  0  0  0  0  0  0  0  0  0  0
   21.7925   17.9930   21.1147 H   0  0  0  0  0  0  0  0  0  0  0  0
   21.6325   19.4486   22.7106 C   0  0  0  0  0  0  0  0  0  0  0  0
   21.6933   18.7201   23.5310 H   0  0  0  0  0  0  0  0  0  0  0  0
   22.6593   19.7872   22.5149 H   0  0  0  0  0  0  0  0  0  0  0  0
   20.7795   20.6576   23.1504 C   0  0  0  0  0  0  0  0  0  0  0  0
   19.7608   20.3477   23.4172 H   0  0  0  0  0  0  0  0  0  0  0  0
   21.2236   21.1445   24.0283 H   0  0  0  0  0  0  0  0  0  0  0  0
   20.7115   21.4030   22.3474 H   0  0  0  0  0  0  0  0  0  0  0  0
  1  2  1  0  0  0  0
  1  3  2  0  0  0  0
  1  4  1  0  0  0  0
  4  5  1  0  0  0  0
  4  6  2  0  0  0  0
  6  7  1  0  0  0  0
  6  8  1  0  0  0  0
  8  9  1  0  0  0  0
  8 10  1  0  0  0  0
  8 11  1  0  0  0  0
 11 12  1  0  0  0  0
 11 13  1  0  0  0  0
 11 14  1  0  0  0  0
 14 15  1  0  0  0  0
 14 16  1  0  0  0  0
 14 17  1  0  0  0  0
M  END
> <VConfSearch Rank>
304

> <Conf_Id>
45

> <Delta U+W>
0.562

> <U+W>
-52.846

> <U>
10.243

> <W>
-63.089

> <W(PB)>
-65.116

> <W(SA)>
2.026

> <Valence>
2.822

> <Coulomb>
6.637

> <VdW>
0.785

> <VdW6>
-5.216

> <VdW12>
6.001

> <Bond>
0.080

> <Angle>
2.678

> <Pdih>
0.064

> <Idih>
0.000

> <Tether>
0.000

$$$$
VeraChem MOL file


 17 16  0  0  0  0  0  0  0  0999 V2000     
   22.3263   18.1901   19.6609 C   0  0  0  0  0  0  0  0  0  0  0  0
   23.4331   17.7234   19.8474 O   0  5  0  0  0  0  0  0  0  0  0  0
   21.9622   18.6159   18.5808 O   0  0  0  0  0  0  0  0  0  0  0  0
   21.3930   18.2303   20.8192 C   0  0  0  0  0  0  0  0  0  0  0  0
   21.7807   17.8342   21.7550 H   0  0  0  0  0  0  0  0  0  0  0  0
   20.1347   18.7221   20.7566 C   0  0  0  0  0  0  0  0  0  0  0  0
   19.7371   19.1236   19.8247 H   0  0  0  0  0  0  0  0  0  0  0  0
   19.1927   18.7613   21.9400 C   0  0  0  0  0  0  0  0  0  0  0  0
   19.3091   17.8505   22.5430 H   0  0  0  0  0  0  0  0  0  0  0  0
   18.1540   18.7692   21.5831 H   0  0  0  0  0  0  0  0  0  0  0  0
   19.4459   20.0034   22.8188 C   0  0  0  0  0  0  0  0  0  0  0  0
   20.4836   19.9949   23.1801 H   0  0  0  0  0  0  0  0  0  0  0  0
   19.3269   20.9131   22.2139 H   0  0  0  0  0  0  0  0  0  0  0  0
   18.4833   20.0557   24.0222 C   0  0  0  0  0  0  0  0  0  0  0  0
   17.4383   20.0971   23.6880 H   0  0  0  0  0  0  0  0  0  0  0  0
   18.6043   19.1709   24.6608 H   0  0  0  0  0  0  0  0  0  0  0  0
   18.6785   20.9453   24.6351 H   0  0  0  0  0  0  0  0  0  0  0  0
  1  2  1  0  0  0  0
  1  3  2  0  0  0  0
  1  4  1  0  0  0  0
  4  5  1  0  0  0  0
  4  6  2  0  0  0  0
  6  7  1  0  0  0  0
  6  8  1  0  0  0  0
  8  9  1  0  0  0  0
  8 10  1  0  0  0  0
  8 11  1  0  0  0  0
 11 12  1  0  0  0  0
 11 13  1  0  0  0  0
 11 14  1  0  0  0  0
 14 15  1  0  0  0  0
 14 16  1  0  0  0  0
 14 17  1  0  0  0  0
M  END
> <VConfSearch Rank>
305

> <Conf_Id>
36

> <Delta U+W>
0.000

> <U+W>
-53.409

> <U>
9.048

> <W>
-62.457

> <W(PB)>
-64.540

> <W(SA)>
2.084

> <Valence>
2.652

> <Coulomb>
5.578

> <VdW>
0.818

> <VdW6>
-4.534

> <VdW12>
5.352

> <Bond>
0.063

> <Angle>
2.579

> <Pdih>
0.010

> <Idih>
0.000

> <Tether>
0.000

$$$$
VeraChem MOL file


 17 16  0  0  0  0  0  0  0  0999 V2000     
   17.3393   17.4039   23.0836 C   0  0  0  0  0  0  0  0  0  0  0  0
   17.0765   17.8721   24.1755 O   0  5  0  0  0  0  0  0  0  0  0  0
   16.8296   16.3836   22.6630 O   0  0  0  0  0  0  0  0  0  0  0  0
   18.3235   18.0932   22.2059 C   0  0  0  0  0  0  0  0  0  0  0  0
   18.5127   17.6225   21.2439 H   0  0  0  0  0  0  0  0  0  0  0  0
   18.9667   19.2335   22.5450 C   0  0  0  0  0  0  0  0  0  0  0  0
   18.7863   19.7123   23.5073 H   0  0  0  0  0  0  0  0  0  0  0  0
   19.9678   19.9272   21.6472 C   0  0  0  0  0  0  0  0  0  0  0  0
   20.0143   20.9942   21.9036 H   0  0  0  0  0  0  0  0  0  0  0  0
   19.6361   19.8714   20.6014 H   0  0  0  0  0  0  0  0  0  0  0  0
   21.3714   19.3022   21.7823 C   0  0  0  0  0  0  0  0  0  0  0  0
   21.7018   19.3613   22.8287 H   0  0  0  0  0  0  0  0  0  0  0  0
   21.3274   18.2355   21.5221 H   0  0  0  0  0  0  0  0  0  0  0  0
   22.3997   20.0098   20.8771 C   0  0  0  0  0  0  0  0  0  0  0  0
   22.4868   21.0729   21.1375 H   0  0  0  0  0  0  0  0  0  0  0  0
   23.3913   19.5518   20.9868 H   0  0  0  0  0  0  0  0  0  0  0  0
   22.1083   19.9382   19.8210 H   0  0  0  0  0  0  0  0  0  0  0  0
  1  2  1  0  0  0  0
  1  3  2  0  0  0  0
  1  4  1  0  0  0  0
  4  5  1  0  0  0  0
  4  6  2  0  0  0  0
  6  7  1  0  0  0  0
  6  8  1  0  0  0  0
  8  9  1  0  0  0  0
  8 10  1  0  0  0  0
  8 11  1  0  0  0  0
 11 12  1  0  0  0  0
 11 13  1  0  0  0  0
 11 14  1  0  0  0  0
 14 15  1  0  0  0  0
 14 16  1  0  0  0  0
 14 17  1  0  0  0  0
M  END
> <VConfSearch Rank>
306

> <Conf_Id>
1

> <Delta U+W>
0.030

> <U+W>
-53.378

> <U>
9.048

> <W>
-62.426

> <W(PB)>
-64.506

> <W(SA)>
2.080

> <Valence>
2.652

> <Coulomb>
5.578

> <VdW>
0.818

> <VdW6>
-4.535

> <VdW12>
5.352

> <Bond>
0.063

> <Angle>
2.579

> <Pdih>
0.010

> <Idih>
0.000

> <Tether>
0.000

$$$$
VeraChem MOL file


 17 16  0  0  0  0  0  0  0  0999 V2000     
   21.7539   16.6426   22.7591 C   0  0  0  0  0  0  0  0  0  0  0  0
   22.6402   17.1807   23.3957 O   0  5  0  0  0  0  0  0  0  0  0  0
   21.5631   15.4421   22.7784 O   0  0  0  0  0  0  0  0  0  0  0  0
   20.8533   17.4680   21.9095 C   0  0  0  0  0  0  0  0  0  0  0  0
   20.0834   16.9249   21.3664 H   0  0  0  0  0  0  0  0  0  0  0  0
   20.9491   18.8121   21.7941 C   0  0  0  0  0  0  0  0  0  0  0  0
   21.7145   19.3667   22.3364 H   0  0  0  0  0  0  0  0  0  0  0  0
   20.0263   19.6461   20.9304 C   0  0  0  0  0  0  0  0  0  0  0  0
   19.8380   19.1246   19.9822 H   0  0  0  0  0  0  0  0  0  0  0  0
   20.5167   20.5929   20.6669 H   0  0  0  0  0  0  0  0  0  0  0  0
   18.6775   19.9388   21.6238 C   0  0  0  0  0  0  0  0  0  0  0  0
   18.0134   20.4525   20.9151 H   0  0  0  0  0  0  0  0  0  0  0  0
   18.1838   18.9932   21.8875 H   0  0  0  0  0  0  0  0  0  0  0  0
   18.8389   20.8111   22.8870 C   0  0  0  0  0  0  0  0  0  0  0  0
   19.3195   21.7679   22.6448 H   0  0  0  0  0  0  0  0  0  0  0  0
   17.8600   21.0271   23.3344 H   0  0  0  0  0  0  0  0  0  0  0  0
   19.4499   20.3025   23.6441 H   0  0  0  0  0  0  0  0  0  0  0  0
  1  2  1  0  0  0  0
  1  3  2  0  0  0  0
  1  4  1  0  0  0  0
  4  5  1  0  0  0  0
  4  6  2  0  0  0  0
  6  7  1  0  0  0  0
  6  8  1  0  0  0  0
  8  9  1  0  0  0  0
  8 10  1  0  0  0  0
  8 11  1  0  0  0  0
 11 12  1  0  0  0  0
 11 13  1  0  0  0  0
 11 14  1  0  0  0  0
 14 15  1  0  0  0  0
 14 16  1  0  0  0  0
 14 17  1  0  0  0  0
M  END
> <VConfSearch Rank>
307

> <Conf_Id>
3

> <Delta U+W>
0.531

> <U+W>
-52.878

> <U>
10.067

> <W>
-62.945

> <W(PB)>
-64.982

> <W(SA)>
2.037

> <Valence>
2.779

> <Coulomb>
6.474

> <VdW>
0.815

> <VdW6>
-5.088

> <VdW12>
5.902

> <Bond>
0.078

> <Angle>
2.651

> <Pdih>
0.050

> <Idih>
0.000

> <Tether>
0.000

$$$$
VeraChem MOL file


 17 16  0  0  0  0  0  0  0  0999 V2000     
   18.4316   18.1901   24.5062 C   0  0  0  0  0  0  0  0  0  0  0  0
   18.4132   18.6526   25.6302 O   0  5  0  0  0  0  0  0  0  0  0  0
   18.0919   17.0488   24.2560 O   0  0  0  0  0  0  0  0  0  0  0  0
   18.8902   19.0791   23.4046 C   0  0  0  0  0  0  0  0  0  0  0  0
   19.1789   20.0859   23.6972 H   0  0  0  0  0  0  0  0  0  0  0  0
   18.9634   18.6972   22.1090 C   0  0  0  0  0  0  0  0  0  0  0  0
   18.6796   17.6892   21.8077 H   0  0  0  0  0  0  0  0  0  0  0  0
   19.4334   19.6037   20.9902 C   0  0  0  0  0  0  0  0  0  0  0  0
   19.4050   20.6551   21.3070 H   0  0  0  0  0  0  0  0  0  0  0  0
   18.7369   19.5206   20.1452 H   0  0  0  0  0  0  0  0  0  0  0  0
   20.8551   19.2464   20.5043 C   0  0  0  0  0  0  0  0  0  0  0  0
   20.8851   18.1939   20.1897 H   0  0  0  0  0  0  0  0  0  0  0  0
   21.0914   19.8466   19.6149 H   0  0  0  0  0  0  0  0  0  0  0  0
   21.9317   19.4983   21.5815 C   0  0  0  0  0  0  0  0  0  0  0  0
   21.7652   18.8662   22.4635 H   0  0  0  0  0  0  0  0  0  0  0  0
   22.9313   19.2711   21.1889 H   0  0  0  0  0  0  0  0  0  0  0  0
   21.9249   20.5471   21.9056 H   0  0  0  0  0  0  0  0  0  0  0  0
  1  2  1  0  0  0  0
  1  3  2  0  0  0  0
  1  4  1  0  0  0  0
  4  5  1  0  0  0  0
  4  6  2  0  0  0  0
  6  7  1  0  0  0  0
  6  8  1  0  0  0  0
  8  9  1  0  0  0  0
  8 10  1  0  0  0  0
  8 11  1  0  0  0  0
 11 12  1  0  0  0  0
 11 13  1  0  0  0  0
 11 14  1  0  0  0  0
 14 15  1  0  0  0  0
 14 16  1  0  0  0  0
 14 17  1  0  0  0  0
M  END
> <VConfSearch Rank>
308

> <Conf_Id>
45

> <Delta U+W>
0.562

> <U+W>
-52.846

> <U>
10.243

> <W>
-63.089

> <W(PB)>
-65.116

> <W(SA)>
2.026

> <Valence>
2.822

> <Coulomb>
6.637

> <VdW>
0.785

> <VdW6>
-5.216

> <VdW12>
6.001

> <Bond>
0.080

> <Angle>
2.678

> <Pdih>
0.064

> <Idih>
0.000

> <Tether>
0.000

$$$$
VeraChem MOL file


 17 16  0  0  0  0  0  0  0  0999 V2000     
   21.6637   19.3342   18.9911 C   0  0  0  0  0  0  0  0  0  0  0  0
   22.8215   19.0579   18.7444 O   0  5  0  0  0  0  0  0  0  0  0  0
   20.9588   19.9682   18.2284 O   0  0  0  0  0  0  0  0  0  0  0  0
   21.1061   18.8642   20.2882 C   0  0  0  0  0  0  0  0  0  0  0  0
   21.7885   18.3034   20.9228 H   0  0  0  0  0  0  0  0  0  0  0  0
   19.8373   19.0997   20.6927 C   0  0  0  0  0  0  0  0  0  0  0  0
   19.1459   19.6626   20.0658 H   0  0  0  0  0  0  0  0  0  0  0  0
   19.2786   18.6201   22.0145 C   0  0  0  0  0  0  0  0  0  0  0  0
   19.6635   17.6168   22.2430 H   0  0  0  0  0  0  0  0  0  0  0  0
   18.1868   18.5264   21.9401 H   0  0  0  0  0  0  0  0  0  0  0  0
   19.6368   19.5884   23.1604 C   0  0  0  0  0  0  0  0  0  0  0  0
   20.7290   19.6799   23.2389 H   0  0  0  0  0  0  0  0  0  0  0  0
   19.2491   20.5906   22.9306 H   0  0  0  0  0  0  0  0  0  0  0  0
   19.0629   19.1114   24.5098 C   0  0  0  0  0  0  0  0  0  0  0  0
   17.9680   19.0417   24.4686 H   0  0  0  0  0  0  0  0  0  0  0  0
   19.4596   18.1234   24.7781 H   0  0  0  0  0  0  0  0  0  0  0  0
   19.3278   19.8122   25.3121 H   0  0  0  0  0  0  0  0  0  0  0  0
  1  2  1  0  0  0  0
  1  3  2  0  0  0  0
  1  4  1  0  0  0  0
  4  5  1  0  0  0  0
  4  6  2  0  0  0  0
  6  7  1  0  0  0  0
  6  8  1  0  0  0  0
  8  9  1  0  0  0  0
  8 10  1  0  0  0  0
  8 11  1  0  0  0  0
 11 12  1  0  0  0  0
 11 13  1  0  0  0  0
 11 14  1  0  0  0  0
 14 15  1  0  0  0  0
 14 16  1  0  0  0  0
 14 17  1  0  0  0  0
M  END
> <VConfSearch Rank>
309

> <Conf_Id>
36

> <Delta U+W>
0.000

> <U+W>
-53.409

> <U>
9.048

> <W>
-62.457

> <W(PB)>
-64.540

> <W(SA)>
2.084

> <Valence>
2.652

> <Coulomb>
5.578

> <VdW>
0.818

> <VdW6>
-4.534

> <VdW12>
5.352

> <Bond>
0.063

> <Angle>
2.579

> <Pdih>
0.010

> <Idih>
0.000

> <Tether>
0.000

$$$$
VeraChem MOL file


 17 16  0  0  0  0  0  0  0  0999 V2000     
   18.4702   20.2331   24.6876 C   0  0  0  0  0  0  0  0  0  0  0  0
   17.7452   19.3383   25.0805 O   0  5  0  0  0  0  0  0  0  0  0  0
   18.4252   21.3629   25.1337 O   0  0  0  0  0  0  0  0  0  0  0  0
   19.4644   19.9562   23.6157 C   0  0  0  0  0  0  0  0  0  0  0  0
   20.0808   20.7988   23.3109 H   0  0  0  0  0  0  0  0  0  0  0  0
   19.6232   18.7482   23.0287 C   0  0  0  0  0  0  0  0  0  0  0  0
   19.0095   17.8976   23.3248 H   0  0  0  0  0  0  0  0  0  0  0  0
   20.6356   18.4754   21.9378 C   0  0  0  0  0  0  0  0  0  0  0  0
   20.8925   17.4075   21.9331 H   0  0  0  0  0  0  0  0  0  0  0  0
   21.5669   19.0199   22.1451 H   0  0  0  0  0  0  0  0  0  0  0  0
   20.0923   18.8818   20.5526 C   0  0  0  0  0  0  0  0  0  0  0  0
   19.1621   18.3343   20.3467 H   0  0  0  0  0  0  0  0  0  0  0  0
   19.8387   19.9510   20.5545 H   0  0  0  0  0  0  0  0  0  0  0  0
   21.1150   18.5983   19.4340 C   0  0  0  0  0  0  0  0  0  0  0  0
   21.3625   17.5296   19.3894 H   0  0  0  0  0  0  0  0  0  0  0  0
   20.7110   18.8936   18.4568 H   0  0  0  0  0  0  0  0  0  0  0  0
   22.0442   19.1590   19.5999 H   0  0  0  0  0  0  0  0  0  0  0  0
  1  2  1  0  0  0  0
  1  3  2  0  0  0  0
  1  4  1  0  0  0  0
  4  5  1  0  0  0  0
  4  6  2  0  0  0  0
  6  7  1  0  0  0  0
  6  8  1  0  0  0  0
  8  9  1  0  0  0  0
  8 10  1  0  0  0  0
  8 11  1  0  0  0  0
 11 12  1  0  0  0  0
 11 13  1  0  0  0  0
 11 14  1  0  0  0  0
 14 15  1  0  0  0  0
 14 16  1  0  0  0  0
 14 17  1  0  0  0  0
M  END
> <VConfSearch Rank>
310

> <Conf_Id>
1

> <Delta U+W>
0.030

> <U+W>
-53.378

> <U>
9.048

> <W>
-62.426

> <W(PB)>
-64.506

> <W(SA)>
2.080

> <Valence>
2.652

> <Coulomb>
5.578

> <VdW>
0.818

> <VdW6>
-4.535

> <VdW12>
5.352

> <Bond>
0.063

> <Angle>
2.579

> <Pdih>
0.010

> <Idih>
0.000

> <Tether>
0.000

$$$$
VeraChem MOL file


 17 16  0  0  0  0  0  0  0  0999 V2000     
   19.7545   16.6992   23.9806 C   0  0  0  0  0  0  0  0  0  0  0  0
   19.4605   15.8158   23.1972 O   0  5  0  0  0  0  0  0  0  0  0  0
   20.1361   16.4768   25.1132 O   0  0  0  0  0  0  0  0  0  0  0  0
   19.6472   18.1221   23.5585 C   0  0  0  0  0  0  0  0  0  0  0  0
   19.9240   18.8613   24.3066 H   0  0  0  0  0  0  0  0  0  0  0  0
   19.2389   18.5152   22.3306 C   0  0  0  0  0  0  0  0  0  0  0  0
   18.9624   17.7829   21.5724 H   0  0  0  0  0  0  0  0  0  0  0  0
   19.1359   19.9653   21.9069 C   0  0  0  0  0  0  0  0  0  0  0  0
   18.7225   20.5615   22.7316 H   0  0  0  0  0  0  0  0  0  0  0  0
   18.4262   20.0610   21.0742 H   0  0  0  0  0  0  0  0  0  0  0  0
   20.5018   20.5546   21.4914 C   0  0  0  0  0  0  0  0  0  0  0  0
   20.3851   21.6296   21.2972 H   0  0  0  0  0  0  0  0  0  0  0  0
   21.2139   20.4614   22.3231 H   0  0  0  0  0  0  0  0  0  0  0  0
   21.0810   19.8745   20.2325 C   0  0  0  0  0  0  0  0  0  0  0  0
   20.3908   19.9663   19.3839 H   0  0  0  0  0  0  0  0  0  0  0  0
   22.0335   20.3393   19.9466 H   0  0  0  0  0  0  0  0  0  0  0  0
   21.2673   18.8071   20.4092 H   0  0  0  0  0  0  0  0  0  0  0  0
  1  2  1  0  0  0  0
  1  3  2  0  0  0  0
  1  4  1  0  0  0  0
  4  5  1  0  0  0  0
  4  6  2  0  0  0  0
  6  7  1  0  0  0  0
  6  8  1  0  0  0  0
  8  9  1  0  0  0  0
  8 10  1  0  0  0  0
  8 11  1  0  0  0  0
 11 12  1  0  0  0  0
 11 13  1  0  0  0  0
 11 14  1  0  0  0  0
 14 15  1  0  0  0  0
 14 16  1  0  0  0  0
 14 17  1  0  0  0  0
M  END
> <VConfSearch Rank>
311

> <Conf_Id>
3

> <Delta U+W>
0.531

> <U+W>
-52.878

> <U>
10.067

> <W>
-62.945

> <W(PB)>
-64.982

> <W(SA)>
2.037

> <Valence>
2.779

> <Coulomb>
6.474

> <VdW>
0.815

> <VdW6>
-5.088

> <VdW12>
5.902

> <Bond>
0.078

> <Angle>
2.651

> <Pdih>
0.050

> <Idih>
0.000

> <Tether>
0.000

$$$$
VeraChem MOL file


 17 16  0  0  0  0  0  0  0  0999 V2000     
   17.0748   18.6665   22.7896 C   0  0  0  0  0  0  0  0  0  0  0  0
   16.0961   18.6389   22.0691 O   0  5  0  0  0  0  0  0  0  0  0  0
   17.0083   18.8770   23.9861 O   0  0  0  0  0  0  0  0  0  0  0  0
   18.4004   18.4264   22.1577 C   0  0  0  0  0  0  0  0  0  0  0  0
   18.3884   18.2449   21.0855 H   0  0  0  0  0  0  0  0  0  0  0  0
   19.5705   18.4304   22.8363 C   0  0  0  0  0  0  0  0  0  0  0  0
   19.5919   18.6151   23.9101 H   0  0  0  0  0  0  0  0  0  0  0  0
   20.9187   18.1883   22.1897 C   0  0  0  0  0  0  0  0  0  0  0  0
   20.7960   17.7181   21.2046 H   0  0  0  0  0  0  0  0  0  0  0  0
   21.4860   17.4734   22.8006 H   0  0  0  0  0  0  0  0  0  0  0  0
   21.7414   19.4874   22.0458 C   0  0  0  0  0  0  0  0  0  0  0  0
   21.8624   19.9598   23.0305 H   0  0  0  0  0  0  0  0  0  0  0  0
   22.7508   19.2351   21.6926 H   0  0  0  0  0  0  0  0  0  0  0  0
   21.1007   20.4903   21.0627 C   0  0  0  0  0  0  0  0  0  0  0  0
   20.1139   20.8163   21.4163 H   0  0  0  0  0  0  0  0  0  0  0  0
   21.7312   21.3825   20.9559 H   0  0  0  0  0  0  0  0  0  0  0  0
   20.9772   20.0412   20.0687 H   0  0  0  0  0  0  0  0  0  0  0  0
  1  2  1  0  0  0  0
  1  3  2  0  0  0  0
  1  4  1  0  0  0  0
  4  5  1  0  0  0  0
  4  6  2  0  0  0  0
  6  7  1  0  0  0  0
  6  8  1  0  0  0  0
  8  9  1  0  0  0  0
  8 10  1  0  0  0  0
  8 11  1  0  0  0  0
 11 12  1  0  0  0  0
 11 13  1  0  0  0  0
 11 14  1  0  0  0  0
 14 15  1  0  0  0  0
 14 16  1  0  0  0  0
 14 17  1  0  0  0  0
M  END
> <VConfSearch Rank>
312

> <Conf_Id>
45

> <Delta U+W>
0.562

> <U+W>
-52.846

> <U>
10.243

> <W>
-63.089

> <W(PB)>
-65.116

> <W(SA)>
2.026

> <Valence>
2.822

> <Coulomb>
6.637

> <VdW>
0.785

> <VdW6>
-5.216

> <VdW12>
6.001

> <Bond>
0.080

> <Angle>
2.678

> <Pdih>
0.064

> <Idih>
0.000

> <Tether>
0.000

$$$$
VeraChem MOL file


 17 16  0  0  0  0  0  0  0  0999 V2000     
   22.1747   21.6904   21.9019 C   0  0  0  0  0  0  0  0  0  0  0  0
   22.3314   22.5701   22.7261 O   0  5  0  0  0  0  0  0  0  0  0  0
   22.6609   21.7351   20.7874 O   0  0  0  0  0  0  0  0  0  0  0  0
   21.3494   20.5170   22.2971 C   0  0  0  0  0  0  0  0  0  0  0  0
   20.9448   20.5397   23.3064 H   0  0  0  0  0  0  0  0  0  0  0  0
   21.0917   19.4683   21.4830 C   0  0  0  0  0  0  0  0  0  0  0  0
   21.4901   19.4364   20.4691 H   0  0  0  0  0  0  0  0  0  0  0  0
   20.2495   18.2797   21.8920 C   0  0  0  0  0  0  0  0  0  0  0  0
   20.4512   18.0193   22.9400 H   0  0  0  0  0  0  0  0  0  0  0  0
   20.5330   17.4042   21.2924 H   0  0  0  0  0  0  0  0  0  0  0  0
   18.7453   18.5667   21.7072 C   0  0  0  0  0  0  0  0  0  0  0  0
   18.4591   19.4399   22.3098 H   0  0  0  0  0  0  0  0  0  0  0  0
   18.5457   18.8248   20.6579 H   0  0  0  0  0  0  0  0  0  0  0  0
   17.8803   17.3565   22.1131 C   0  0  0  0  0  0  0  0  0  0  0  0
   18.1243   16.4768   21.5032 H   0  0  0  0  0  0  0  0  0  0  0  0
   18.0382   17.0969   23.1681 H   0  0  0  0  0  0  0  0  0  0  0  0
   16.8143   17.5794   21.9750 H   0  0  0  0  0  0  0  0  0  0  0  0
  1  2  1  0  0  0  0
  1  3  2  0  0  0  0
  1  4  1  0  0  0  0
  4  5  1  0  0  0  0
  4  6  2  0  0  0  0
  6  7  1  0  0  0  0
  6  8  1  0  0  0  0
  8  9  1  0  0  0  0
  8 10  1  0  0  0  0
  8 11  1  0  0  0  0
 11 12  1  0  0  0  0
 11 13  1  0  0  0  0
 11 14  1  0  0  0  0
 14 15  1  0  0  0  0
 14 16  1  0  0  0  0
 14 17  1  0  0  0  0
M  END
> <VConfSearch Rank>
313

> <Conf_Id>
36

> <Delta U+W>
0.000

> <U+W>
-53.409

> <U>
9.048

> <W>
-62.457

> <W(PB)>
-64.540

> <W(SA)>
2.084

> <Valence>
2.652

> <Coulomb>
5.578

> <VdW>
0.818

> <VdW6>
-4.534

> <VdW12>
5.352

> <Bond>
0.063

> <Angle>
2.579

> <Pdih>
0.010

> <Idih>
0.000

> <Tether>
0.000

$$$$
VeraChem MOL file


 17 16  0  0  0  0  0  0  0  0999 V2000     
   23.1862   18.3669   21.0260 C   0  0  0  0  0  0  0  0  0  0  0  0
   23.5055   19.1705   20.1700 O   0  5  0  0  0  0  0  0  0  0  0  0
   23.8558   17.3889   21.2959 O   0  0  0  0  0  0  0  0  0  0  0  0
   21.9257   18.5694   21.7904 C   0  0  0  0  0  0  0  0  0  0  0  0
   21.6991   17.8152   22.5405 H   0  0  0  0  0  0  0  0  0  0  0  0
   21.0847   19.6105   21.5951 C   0  0  0  0  0  0  0  0  0  0  0  0
   21.3009   20.3707   20.8447 H   0  0  0  0  0  0  0  0  0  0  0  0
   19.8037   19.8081   22.3756 C   0  0  0  0  0  0  0  0  0  0  0  0
   19.5356   20.8732   22.3790 H   0  0  0  0  0  0  0  0  0  0  0  0
   19.9552   19.5206   23.4250 H   0  0  0  0  0  0  0  0  0  0  0  0
   18.6459   18.9864   21.7727 C   0  0  0  0  0  0  0  0  0  0  0  0
   18.4949   19.2773   20.7238 H   0  0  0  0  0  0  0  0  0  0  0  0
   18.9108   17.9199   21.7723 H   0  0  0  0  0  0  0  0  0  0  0  0
   17.3341   19.1896   22.5572 C   0  0  0  0  0  0  0  0  0  0  0  0
   17.0291   20.2443   22.5465 H   0  0  0  0  0  0  0  0  0  0  0  0
   16.5227   18.5978   22.1139 H   0  0  0  0  0  0  0  0  0  0  0  0
   17.4494   18.8765   23.6032 H   0  0  0  0  0  0  0  0  0  0  0  0
  1  2  1  0  0  0  0
  1  3  2  0  0  0  0
  1  4  1  0  0  0  0
  4  5  1  0  0  0  0
  4  6  2  0  0  0  0
  6  7  1  0  0  0  0
  6  8  1  0  0  0  0
  8  9  1  0  0  0  0
  8 10  1  0  0  0  0
  8 11  1  0  0  0  0
 11 12  1  0  0  0  0
 11 13  1  0  0  0  0
 11 14  1  0  0  0  0
 14 15  1  0  0  0  0
 14 16  1  0  0  0  0
 14 17  1  0  0  0  0
M  END
> <VConfSearch Rank>
314

> <Conf_Id>
1

> <Delta U+W>
0.030

> <U+W>
-53.378

> <U>
9.048

> <W>
-62.426

> <W(PB)>
-64.506

> <W(SA)>
2.080

> <Valence>
2.652

> <Coulomb>
5.578

> <VdW>
0.818

> <VdW6>
-4.535

> <VdW12>
5.352

> <Bond>
0.063

> <Angle>
2.579

> <Pdih>
0.010

> <Idih>
0.000

> <Tether>
0.000

$$$$
VeraChem MOL file


 17 16  0  0  0  0  0  0  0  0999 V2000     
   22.6876   19.0363   20.5132 C   0  0  0  0  0  0  0  0  0  0  0  0
   22.4130   19.7576   19.5726 O   0  5  0  0  0  0  0  0  0  0  0  0
   23.8295   18.7380   20.8046 O   0  0  0  0  0  0  0  0  0  0  0  0
   21.5954   18.4797   21.3565 C   0  0  0  0  0  0  0  0  0  0  0  0
   21.9092   17.8421   22.1798 H   0  0  0  0  0  0  0  0  0  0  0  0
   20.2822   18.7283   21.1496 C   0  0  0  0  0  0  0  0  0  0  0  0
   19.9569   19.3684   20.3297 H   0  0  0  0  0  0  0  0  0  0  0  0
   19.1762   18.1613   22.0146 C   0  0  0  0  0  0  0  0  0  0  0  0
   19.4031   17.1160   22.2643 H   0  0  0  0  0  0  0  0  0  0  0  0
   18.2337   18.1438   21.4508 H   0  0  0  0  0  0  0  0  0  0  0  0
   18.9819   18.9630   23.3204 C   0  0  0  0  0  0  0  0  0  0  0  0
   18.2451   18.4478   23.9519 H   0  0  0  0  0  0  0  0  0  0  0  0
   19.9230   18.9813   23.8873 H   0  0  0  0  0  0  0  0  0  0  0  0
   18.5026   20.4074   23.0618 C   0  0  0  0  0  0  0  0  0  0  0  0
   17.5556   20.4134   22.5066 H   0  0  0  0  0  0  0  0  0  0  0  0
   18.3429   20.9365   24.0102 H   0  0  0  0  0  0  0  0  0  0  0  0
   19.2437   20.9728   22.4819 H   0  0  0  0  0  0  0  0  0  0  0  0
  1  2  1  0  0  0  0
  1  3  2  0  0  0  0
  1  4  1  0  0  0  0
  4  5  1  0  0  0  0
  4  6  2  0  0  0  0
  6  7  1  0  0  0  0
  6  8  1  0  0  0  0
  8  9  1  0  0  0  0
  8 10  1  0  0  0  0
  8 11  1  0  0  0  0
 11 12  1  0  0  0  0
 11 13  1  0  0  0  0
 11 14  1  0  0  0  0
 14 15  1  0  0  0  0
 14 16  1  0  0  0  0
 14 17  1  0  0  0  0
M  END
> <VConfSearch Rank>
315

> <Conf_Id>
3

> <Delta U+W>
0.531

> <U+W>
-52.878

> <U>
10.067

> <W>
-62.945

> <W(PB)>
-64.982

> <W(SA)>
2.037

> <Valence>
2.779

> <Coulomb>
6.474

> <VdW>
0.815

> <VdW6>
-5.088

> <VdW12>
5.902

> <Bond>
0.078

> <Angle>
2.651

> <Pdih>
0.050

> <Idih>
0.000

> <Tether>
0.000

$$$$
VeraChem MOL file


 17 16  0  0  0  0  0  0  0  0999 V2000     
   20.4362   21.8525   20.9240 C   0  0  0  0  0  0  0  0  0  0  0  0
   20.4370   22.2163   19.7641 O   0  5  0  0  0  0  0  0  0  0  0  0
   20.9774   22.4817   21.8138 O   0  0  0  0  0  0  0  0  0  0  0  0
   19.7334   20.5808   21.2450 C   0  0  0  0  0  0  0  0  0  0  0  0
   19.2715   20.0693   20.4038 H   0  0  0  0  0  0  0  0  0  0  0  0
   19.6549   20.0566   22.4894 C   0  0  0  0  0  0  0  0  0  0  0  0
   20.1180   20.5608   23.3373 H   0  0  0  0  0  0  0  0  0  0  0  0
   18.9411   18.7603   22.8126 C   0  0  0  0  0  0  0  0  0  0  0  0
   18.2592   18.4812   21.9979 H   0  0  0  0  0  0  0  0  0  0  0  0
   18.3115   18.9095   23.7000 H   0  0  0  0  0  0  0  0  0  0  0  0
   19.9250   17.6017   23.0858 C   0  0  0  0  0  0  0  0  0  0  0  0
   20.6092   17.8811   23.8989 H   0  0  0  0  0  0  0  0  0  0  0  0
   19.3603   16.7272   23.4374 H   0  0  0  0  0  0  0  0  0  0  0  0
   20.7379   17.2054   21.8348 C   0  0  0  0  0  0  0  0  0  0  0  0
   21.3663   18.0372   21.4908 H   0  0  0  0  0  0  0  0  0  0  0  0
   21.3964   16.3554   22.0555 H   0  0  0  0  0  0  0  0  0  0  0  0
   20.0734   16.9147   21.0107 H   0  0  0  0  0  0  0  0  0  0  0  0
  1  2  1  0  0  0  0
  1  3  2  0  0  0  0
  1  4  1  0  0  0  0
  4  5  1  0  0  0  0
  4  6  2  0  0  0  0
  6  7  1  0  0  0  0
  6  8  1  0  0  0  0
  8  9  1  0  0  0  0
  8 10  1  0  0  0  0
  8 11  1  0  0  0  0
 11 12  1  0  0  0  0
 11 13  1  0  0  0  0
 11 14  1  0  0  0  0
 14 15  1  0  0  0  0
 14 16  1  0  0  0  0
 14 17  1  0  0  0  0
M  END
> <VConfSearch Rank>
316

> <Conf_Id>
45

> <Delta U+W>
0.562

> <U+W>
-52.846

> <U>
10.243

> <W>
-63.089

> <W(PB)>
-65.116

> <W(SA)>
2.026

> <Valence>
2.822

> <Coulomb>
6.637

> <VdW>
0.785

> <VdW6>
-5.216

> <VdW12>
6.001

> <Bond>
0.080

> <Angle>
2.678

> <Pdih>
0.064

> <Idih>
0.000

> <Tether>
0.000

$$$$
VeraChem MOL file


 17 16  0  0  0  0  0  0  0  0999 V2000     
   16.6638   18.6852   21.5878 C   0  0  0  0  0  0  0  0  0  0  0  0
   15.9928   17.6931   21.7956 O   0  5  0  0  0  0  0  0  0  0  0  0
   16.2388   19.6573   20.9921 O   0  0  0  0  0  0  0  0  0  0  0  0
   18.0627   18.6878   22.0950 C   0  0  0  0  0  0  0  0  0  0  0  0
   18.3794   17.7885   22.6184 H   0  0  0  0  0  0  0  0  0  0  0  0
   18.9205   19.7210   21.9349 C   0  0  0  0  0  0  0  0  0  0  0  0
   18.6144   20.6258   21.4101 H   0  0  0  0  0  0  0  0  0  0  0  0
   20.3425   19.7147   22.4520 C   0  0  0  0  0  0  0  0  0  0  0  0
   20.3834   19.2208   23.4324 H   0  0  0  0  0  0  0  0  0  0  0  0
   20.6816   20.7477   22.6081 H   0  0  0  0  0  0  0  0  0  0  0  0
   21.2944   19.0018   21.4699 C   0  0  0  0  0  0  0  0  0  0  0  0
   20.9588   17.9668   21.3158 H   0  0  0  0  0  0  0  0  0  0  0  0
   21.2532   19.4988   20.4907 H   0  0  0  0  0  0  0  0  0  0  0  0
   22.7476   18.9993   21.9853 C   0  0  0  0  0  0  0  0  0  0  0  0
   23.1193   20.0239   22.1178 H   0  0  0  0  0  0  0  0  0  0  0  0
   22.8214   18.4802   22.9499 H   0  0  0  0  0  0  0  0  0  0  0  0
   23.4094   18.4882   21.2740 H   0  0  0  0  0  0  0  0  0  0  0  0
  1  2  1  0  0  0  0
  1  3  2  0  0  0  0
  1  4  1  0  0  0  0
  4  5  1  0  0  0  0
  4  6  2  0  0  0  0
  6  7  1  0  0  0  0
  6  8  1  0  0  0  0
  8  9  1  0  0  0  0
  8 10  1  0  0  0  0
  8 11  1  0  0  0  0
 11 12  1  0  0  0  0
 11 13  1  0  0  0  0
 11 14  1  0  0  0  0
 14 15  1  0  0  0  0
 14 16  1  0  0  0  0
 14 17  1  0  0  0  0
M  END
> <VConfSearch Rank>
317

> <Conf_Id>
36

> <Delta U+W>
0.000

> <U+W>
-53.409

> <U>
9.048

> <W>
-62.457

> <W(PB)>
-64.540

> <W(SA)>
2.084

> <Valence>
2.652

> <Coulomb>
5.578

> <VdW>
0.818

> <VdW6>
-4.534

> <VdW12>
5.352

> <Bond>
0.063

> <Angle>
2.579

> <Pdih>
0.010

> <Idih>
0.000

> <Tether>
0.000

$$$$
VeraChem MOL file


 17 16  0  0  0  0  0  0  0  0999 V2000     
   17.3652   17.4605   23.2154 C   0  0  0  0  0  0  0  0  0  0  0  0
   16.8440   18.2151   24.0150 O   0  5  0  0  0  0  0  0  0  0  0  0
   17.0633   16.2866   23.1221 O   0  0  0  0  0  0  0  0  0  0  0  0
   18.4198   17.9740   22.2999 C   0  0  0  0  0  0  0  0  0  0  0  0
   18.8442   17.2480   21.6102 H   0  0  0  0  0  0  0  0  0  0  0  0
   18.8546   19.2546   22.2940 C   0  0  0  0  0  0  0  0  0  0  0  0
   18.4378   19.9897   22.9823 H   0  0  0  0  0  0  0  0  0  0  0  0
   19.9290   19.7684   21.3608 C   0  0  0  0  0  0  0  0  0  0  0  0
   19.8066   20.8507   21.2193 H   0  0  0  0  0  0  0  0  0  0  0  0
   19.8165   19.3089   20.3694 H   0  0  0  0  0  0  0  0  0  0  0  0
   21.3394   19.4764   21.9128 C   0  0  0  0  0  0  0  0  0  0  0  0
   21.4502   19.9388   22.9035 H   0  0  0  0  0  0  0  0  0  0  0  0
   21.4650   18.3935   22.0512 H   0  0  0  0  0  0  0  0  0  0  0  0
   22.4404   20.0052   20.9717 C   0  0  0  0  0  0  0  0  0  0  0  0
   22.3570   21.0922   20.8411 H   0  0  0  0  0  0  0  0  0  0  0  0
   23.4358   19.7885   21.3808 H   0  0  0  0  0  0  0  0  0  0  0  0
   22.3708   19.5346   19.9822 H   0  0  0  0  0  0  0  0  0  0  0  0
  1  2  1  0  0  0  0
  1  3  2  0  0  0  0
  1  4  1  0  0  0  0
  4  5  1  0  0  0  0
  4  6  2  0  0  0  0
  6  7  1  0  0  0  0
  6  8  1  0  0  0  0
  8  9  1  0  0  0  0
  8 10  1  0  0  0  0
  8 11  1  0  0  0  0
 11 12  1  0  0  0  0
 11 13  1  0  0  0  0
 11 14  1  0  0  0  0
 14 15  1  0  0  0  0
 14 16  1  0  0  0  0
 14 17  1  0  0  0  0
M  END
> <VConfSearch Rank>
318

> <Conf_Id>
1

> <Delta U+W>
0.030

> <U+W>
-53.378

> <U>
9.048

> <W>
-62.426

> <W(PB)>
-64.506

> <W(SA)>
2.080

> <Valence>
2.652

> <Coulomb>
5.578

> <VdW>
0.818

> <VdW6>
-4.535

> <VdW12>
5.352

> <Bond>
0.063

> <Angle>
2.579

> <Pdih>
0.010

> <Idih>
0.000

> <Tether>
0.000

$$$$
VeraChem MOL file


 17 16  0  0  0  0  0  0  0  0999 V2000     
   22.1259   21.2624   22.6182 C   0  0  0  0  0  0  0  0  0  0  0  0
   22.5098   21.4957   21.4875 O   0  5  0  0  0  0  0  0  0  0  0  0
   22.3544   21.9991   23.5578 O   0  0  0  0  0  0  0  0  0  0  0  0
   21.3436   20.0259   22.8888 C   0  0  0  0  0  0  0  0  0  0  0  0
   21.0321   19.8773   23.9201 H   0  0  0  0  0  0  0  0  0  0  0  0
   21.0157   19.1190   21.9406 C   0  0  0  0  0  0  0  0  0  0  0  0
   21.3197   19.2596   20.9036 H   0  0  0  0  0  0  0  0  0  0  0  0
   20.2158   17.8645   22.2228 C   0  0  0  0  0  0  0  0  0  0  0  0
   20.5453   17.4237   23.1734 H   0  0  0  0  0  0  0  0  0  0  0  0
   20.4183   17.1113   21.4495 H   0  0  0  0  0  0  0  0  0  0  0  0
   18.6974   18.1388   22.2914 C   0  0  0  0  0  0  0  0  0  0  0  0
   18.1801   17.2204   22.6013 H   0  0  0  0  0  0  0  0  0  0  0  0
   18.4915   18.8913   23.0652 H   0  0  0  0  0  0  0  0  0  0  0  0
   18.1201   18.6114   20.9400 C   0  0  0  0  0  0  0  0  0  0  0  0
   18.3034   17.8681   20.1532 H   0  0  0  0  0  0  0  0  0  0  0  0
   17.0358   18.7642   21.0159 H   0  0  0  0  0  0  0  0  0  0  0  0
   18.5725   19.5612   20.6265 H   0  0  0  0  0  0  0  0  0  0  0  0
  1  2  1  0  0  0  0
  1  3  2  0  0  0  0
  1  4  1  0  0  0  0
  4  5  1  0  0  0  0
  4  6  2  0  0  0  0
  6  7  1  0  0  0  0
  6  8  1  0  0  0  0
  8  9  1  0  0  0  0
  8 10  1  0  0  0  0
  8 11  1  0  0  0  0
 11 12  1  0  0  0  0
 11 13  1  0  0  0  0
 11 14  1  0  0  0  0
 14 15  1  0  0  0  0
 14 16  1  0  0  0  0
 14 17  1  0  0  0  0
M  END
> <VConfSearch Rank>
319

> <Conf_Id>
3

> <Delta U+W>
0.531

> <U+W>
-52.878

> <U>
10.067

> <W>
-62.945

> <W(PB)>
-64.982

> <W(SA)>
2.037

> <Valence>
2.779

> <Coulomb>
6.474

> <VdW>
0.815

> <VdW6>
-5.088

> <VdW12>
5.902

> <Bond>
0.078

> <Angle>
2.651

> <Pdih>
0.050

> <Idih>
0.000

> <Tether>
0.000

$$$$
VeraChem MOL file


 17 16  0  0  0  0  0  0  0  0999 V2000     
   22.7006   19.0121   20.7756 C   0  0  0  0  0  0  0  0  0  0  0  0
   23.7948   19.2414   21.2531 O   0  5  0  0  0  0  0  0  0  0  0  0
   22.4811   19.0497   19.5794 O   0  0  0  0  0  0  0  0  0  0  0  0
   21.5987   18.6698   21.7151 C   0  0  0  0  0  0  0  0  0  0  0  0
   21.8630   18.6540   22.7699 H   0  0  0  0  0  0  0  0  0  0  0  0
   20.3334   18.3944   21.3242 C   0  0  0  0  0  0  0  0  0  0  0  0
   20.0591   18.4117   20.2697 H   0  0  0  0  0  0  0  0  0  0  0  0
   19.2131   18.0490   22.2833 C   0  0  0  0  0  0  0  0  0  0  0  0
   19.6183   17.7550   23.2611 H   0  0  0  0  0  0  0  0  0  0  0  0
   18.6717   17.1731   21.9015 H   0  0  0  0  0  0  0  0  0  0  0  0
   18.2159   19.2144   22.4640 C   0  0  0  0  0  0  0  0  0  0  0  0
   17.8120   19.5109   21.4860 H   0  0  0  0  0  0  0  0  0  0  0  0
   17.3632   18.8669   23.0634 H   0  0  0  0  0  0  0  0  0  0  0  0
   18.8521   20.4384   23.1569 C   0  0  0  0  0  0  0  0  0  0  0  0
   19.6697   20.8544   22.5540 H   0  0  0  0  0  0  0  0  0  0  0  0
   18.1060   21.2300   23.3036 H   0  0  0  0  0  0  0  0  0  0  0  0
   19.2561   20.1664   24.1408 H   0  0  0  0  0  0  0  0  0  0  0  0
  1  2  1  0  0  0  0
  1  3  2  0  0  0  0
  1  4  1  0  0  0  0
  4  5  1  0  0  0  0
  4  6  2  0  0  0  0
  6  7  1  0  0  0  0
  6  8  1  0  0  0  0
  8  9  1  0  0  0  0
  8 10  1  0  0  0  0
  8 11  1  0  0  0  0
 11 12  1  0  0  0  0
 11 13  1  0  0  0  0
 11 14  1  0  0  0  0
 14 15  1  0  0  0  0
 14 16  1  0  0  0  0
 14 17  1  0  0  0  0
M  END
> <VConfSearch Rank>
320

> <Conf_Id>
45

> <Delta U+W>
0.562

> <U+W>
-52.846

> <U>
10.243

> <W>
-63.089

> <W(PB)>
-65.116

> <W(SA)>
2.026

> <Valence>
2.822

> <Coulomb>
6.637

> <VdW>
0.785

> <VdW6>
-5.216

> <VdW12>
6.001

> <Bond>
0.080

> <Angle>
2.678

> <Pdih>
0.064

> <Idih>
0.000

> <Tether>
0.000

$$$$
VeraChem MOL file


 17 16  0  0  0  0  0  0  0  0999 V2000     
   23.2752   18.3932   21.6278 C   0  0  0  0  0  0  0  0  0  0  0  0
   23.9804   17.7195   22.3533 O   0  5  0  0  0  0  0  0  0  0  0  0
   23.7230   19.1224   20.7628 O   0  0  0  0  0  0  0  0  0  0  0  0
   21.8029   18.3043   21.8243 C   0  0  0  0  0  0  0  0  0  0  0  0
   21.4690   17.6347   22.6136 H   0  0  0  0  0  0  0  0  0  0  0  0
   20.9014   18.9970   21.0917 C   0  0  0  0  0  0  0  0  0  0  0  0
   21.2251   19.6725   20.3000 H   0  0  0  0  0  0  0  0  0  0  0  0
   19.4057   18.9025   21.2995 C   0  0  0  0  0  0  0  0  0  0  0  0
   19.1233   17.8662   21.5301 H   0  0  0  0  0  0  0  0  0  0  0  0
   18.8875   19.1677   20.3681 H   0  0  0  0  0  0  0  0  0  0  0  0
   18.9362   19.8349   22.4349 C   0  0  0  0  0  0  0  0  0  0  0  0
   19.4507   19.5681   23.3686 H   0  0  0  0  0  0  0  0  0  0  0  0
   19.2180   20.8710   22.2010 H   0  0  0  0  0  0  0  0  0  0  0  0
   17.4112   19.7514   22.6468 C   0  0  0  0  0  0  0  0  0  0  0  0
   16.8714   20.0443   21.7367 H   0  0  0  0  0  0  0  0  0  0  0  0
   17.1067   18.7306   22.9126 H   0  0  0  0  0  0  0  0  0  0  0  0
   17.0962   20.4210   23.4578 H   0  0  0  0  0  0  0  0  0  0  0  0
  1  2  1  0  0  0  0
  1  3  2  0  0  0  0
  1  4  1  0  0  0  0
  4  5  1  0  0  0  0
  4  6  2  0  0  0  0
  6  7  1  0  0  0  0
  6  8  1  0  0  0  0
  8  9  1  0  0  0  0
  8 10  1  0  0  0  0
  8 11  1  0  0  0  0
 11 12  1  0  0  0  0
 11 13  1  0  0  0  0
 11 14  1  0  0  0  0
 14 15  1  0  0  0  0
 14 16  1  0  0  0  0
 14 17  1  0  0  0  0
M  END
> <VConfSearch Rank>
321

> <Conf_Id>
36

> <Delta U+W>
0.000

> <U+W>
-53.409

> <U>
9.048

> <W>
-62.457

> <W(PB)>
-64.540

> <W(SA)>
2.084

> <Valence>
2.652

> <Coulomb>
5.578

> <VdW>
0.818

> <VdW6>
-4.534

> <VdW12>
5.352

> <Bond>
0.063

> <Angle>
2.579

> <Pdih>
0.010

> <Idih>
0.000

> <Tether>
0.000

$$$$
VeraChem MOL file


 17 16  0  0  0  0  0  0  0  0999 V2000     
   18.7503   16.1098   22.8512 C   0  0  0  0  0  0  0  0  0  0  0  0
   19.5613   15.2644   22.5226 O   0  5  0  0  0  0  0  0  0  0  0  0
   17.6307   15.8356   23.2373 O   0  0  0  0  0  0  0  0  0  0  0  0
   19.1225   17.5491   22.7878 C   0  0  0  0  0  0  0  0  0  0  0  0
   18.3521   18.2525   23.0955 H   0  0  0  0  0  0  0  0  0  0  0  0
   20.3305   17.9979   22.3775 C   0  0  0  0  0  0  0  0  0  0  0  0
   21.1089   17.3020   22.0650 H   0  0  0  0  0  0  0  0  0  0  0  0
   20.7003   19.4636   22.3142 C   0  0  0  0  0  0  0  0  0  0  0  0
   21.7906   19.5716   22.3920 H   0  0  0  0  0  0  0  0  0  0  0  0
   20.2715   19.9966   23.1738 H   0  0  0  0  0  0  0  0  0  0  0  0
   20.2098   20.1109   21.0029 C   0  0  0  0  0  0  0  0  0  0  0  0
   20.6418   19.5775   20.1448 H   0  0  0  0  0  0  0  0  0  0  0  0
   19.1186   20.0074   20.9255 H   0  0  0  0  0  0  0  0  0  0  0  0
   20.5910   21.6030   20.9266 C   0  0  0  0  0  0  0  0  0  0  0  0
   21.6804   21.7330   20.9699 H   0  0  0  0  0  0  0  0  0  0  0  0
   20.2341   22.0458   19.9876 H   0  0  0  0  0  0  0  0  0  0  0  0
   20.1452   22.1653   21.7575 H   0  0  0  0  0  0  0  0  0  0  0  0
  1  2  1  0  0  0  0
  1  3  2  0  0  0  0
  1  4  1  0  0  0  0
  4  5  1  0  0  0  0
  4  6  2  0  0  0  0
  6  7  1  0  0  0  0
  6  8  1  0  0  0  0
  8  9  1  0  0  0  0
  8 10  1  0  0  0  0
  8 11  1  0  0  0  0
 11 12  1  0  0  0  0
 11 13  1  0  0  0  0
 11 14  1  0  0  0  0
 14 15  1  0  0  0  0
 14 16  1  0  0  0  0
 14 17  1  0  0  0  0
M  END
> <VConfSearch Rank>
322

> <Conf_Id>
1

> <Delta U+W>
0.030

> <U+W>
-53.378

> <U>
9.048

> <W>
-62.426

> <W(PB)>
-64.506

> <W(SA)>
2.080

> <Valence>
2.652

> <Coulomb>
5.578

> <VdW>
0.818

> <VdW6>
-4.535

> <VdW12>
5.352

> <Bond>
0.063

> <Angle>
2.579

> <Pdih>
0.010

> <Idih>
0.000

> <Tether>
0.000

$$$$
VeraChem MOL file


 17 16  0  0  0  0  0  0  0  0999 V2000     
   20.6684   21.1976   19.8999 C   0  0  0  0  0  0  0  0  0  0  0  0
   21.6260   21.7451   20.4134 O   0  5  0  0  0  0  0  0  0  0  0  0
   20.3857   21.3278   18.7248 O   0  0  0  0  0  0  0  0  0  0  0  0
   19.7879   20.3283   20.7264 C   0  0  0  0  0  0  0  0  0  0  0  0
   18.9498   19.8702   20.2063 H   0  0  0  0  0  0  0  0  0  0  0  0
   19.9832   20.0929   22.0437 C   0  0  0  0  0  0  0  0  0  0  0  0
   20.8216   20.5441   22.5739 H   0  0  0  0  0  0  0  0  0  0  0  0
   19.0848   19.2038   22.8777 C   0  0  0  0  0  0  0  0  0  0  0  0
   18.0359   19.3773   22.6015 H   0  0  0  0  0  0  0  0  0  0  0  0
   19.1712   19.4761   23.9382 H   0  0  0  0  0  0  0  0  0  0  0  0
   19.4136   17.7050   22.7009 C   0  0  0  0  0  0  0  0  0  0  0  0
   18.6677   17.1074   23.2427 H   0  0  0  0  0  0  0  0  0  0  0  0
   19.3268   17.4293   21.6408 H   0  0  0  0  0  0  0  0  0  0  0  0
   20.8222   17.3435   23.2184 C   0  0  0  0  0  0  0  0  0  0  0  0
   20.9278   17.5991   24.2808 H   0  0  0  0  0  0  0  0  0  0  0  0
   21.0093   16.2675   23.1085 H   0  0  0  0  0  0  0  0  0  0  0  0
   21.5996   17.8790   22.6580 H   0  0  0  0  0  0  0  0  0  0  0  0
  1  2  1  0  0  0  0
  1  3  2  0  0  0  0
  1  4  1  0  0  0  0
  4  5  1  0  0  0  0
  4  6  2  0  0  0  0
  6  7  1  0  0  0  0
  6  8  1  0  0  0  0
  8  9  1  0  0  0  0
  8 10  1  0  0  0  0
  8 11  1  0  0  0  0
 11 12  1  0  0  0  0
 11 13  1  0  0  0  0
 11 14  1  0  0  0  0
 14 15  1  0  0  0  0
 14 16  1  0  0  0  0
 14 17  1  0  0  0  0
M  END
> <VConfSearch Rank>
323

> <Conf_Id>
3

> <Delta U+W>
0.531

> <U+W>
-52.878

> <U>
10.067

> <W>
-62.945

> <W(PB)>
-64.982

> <W(SA)>
2.037

> <Valence>
2.779

> <Coulomb>
6.474

> <VdW>
0.815

> <VdW6>
-5.088

> <VdW12>
5.902

> <Bond>
0.078

> <Angle>
2.651

> <Pdih>
0.050

> <Idih>
0.000

> <Tether>
0.000

$$$$
VeraChem MOL file


 17 16  0  0  0  0  0  0  0  0999 V2000     
   19.0339   16.6222   20.6303 C   0  0  0  0  0  0  0  0  0  0  0  0
   17.9477   16.3761   20.1431 O   0  5  0  0  0  0  0  0  0  0  0  0
   19.8343   15.7565   20.9309 O   0  0  0  0  0  0  0  0  0  0  0  0
   19.3778   18.0521   20.8563 C   0  0  0  0  0  0  0  0  0  0  0  0
   18.6180   18.7739   20.5654 H   0  0  0  0  0  0  0  0  0  0  0  0
   20.5474   18.4704   21.3917 C   0  0  0  0  0  0  0  0  0  0  0  0
   21.3125   17.7538   21.6892 H   0  0  0  0  0  0  0  0  0  0  0  0
   20.8934   19.9268   21.6231 C   0  0  0  0  0  0  0  0  0  0  0  0
   20.2334   20.5790   21.0350 H   0  0  0  0  0  0  0  0  0  0  0  0
   21.9122   20.1153   21.2589 H   0  0  0  0  0  0  0  0  0  0  0  0
   20.8144   20.3182   23.1150 C   0  0  0  0  0  0  0  0  0  0  0  0
   21.4724   19.6645   23.7043 H   0  0  0  0  0  0  0  0  0  0  0  0
   21.1964   21.3410   23.2379 H   0  0  0  0  0  0  0  0  0  0  0  0
   19.3766   20.2479   23.6721 C   0  0  0  0  0  0  0  0  0  0  0  0
   18.9832   19.2242   23.6253 H   0  0  0  0  0  0  0  0  0  0  0  0
   19.3529   20.5696   24.7213 H   0  0  0  0  0  0  0  0  0  0  0  0
   18.7024   20.9003   23.1020 H   0  0  0  0  0  0  0  0  0  0  0  0
  1  2  1  0  0  0  0
  1  3  2  0  0  0  0
  1  4  1  0  0  0  0
  4  5  1  0  0  0  0
  4  6  2  0  0  0  0
  6  7  1  0  0  0  0
  6  8  1  0  0  0  0
  8  9  1  0  0  0  0
  8 10  1  0  0  0  0
  8 11  1  0  0  0  0
 11 12  1  0  0  0  0
 11 13  1  0  0  0  0
 11 14  1  0  0  0  0
 14 15  1  0  0  0  0
 14 16  1  0  0  0  0
 14 17  1  0  0  0  0
M  END
> <VConfSearch Rank>
324

> <Conf_Id>
45

> <Delta U+W>
0.562

> <U+W>
-52.846

> <U>
10.243

> <W>
-63.089

> <W(PB)>
-65.116

> <W(SA)>
2.026

> <Valence>
2.822

> <Coulomb>
6.637

> <VdW>
0.785

> <VdW6>
-5.216

> <VdW12>
6.001

> <Bond>
0.080

> <Angle>
2.678

> <Pdih>
0.064

> <Idih>
0.000

> <Tether>
0.000

$$$$
VeraChem MOL file


 17 16  0  0  0  0  0  0  0  0999 V2000     
   17.0093   17.6117   22.3678 C   0  0  0  0  0  0  0  0  0  0  0  0
   16.1694   17.3042   21.5446 O   0  5  0  0  0  0  0  0  0  0  0  0
   16.7903   17.6174   23.5646 O   0  0  0  0  0  0  0  0  0  0  0  0
   18.3572   17.9926   21.8655 C   0  0  0  0  0  0  0  0  0  0  0  0
   18.4862   17.9665   20.7859 H   0  0  0  0  0  0  0  0  0  0  0  0
   19.3845   18.3573   22.6660 C   0  0  0  0  0  0  0  0  0  0  0  0
   19.2654   18.3893   23.7489 H   0  0  0  0  0  0  0  0  0  0  0  0
   20.7516   18.7454   22.1469 C   0  0  0  0  0  0  0  0  0  0  0  0
   21.0258   18.1063   21.2965 H   0  0  0  0  0  0  0  0  0  0  0  0
   21.5049   18.5683   22.9264 H   0  0  0  0  0  0  0  0  0  0  0  0
   20.7904   20.2267   21.7187 C   0  0  0  0  0  0  0  0  0  0  0  0
   20.0402   20.4046   20.9358 H   0  0  0  0  0  0  0  0  0  0  0  0
   20.5179   20.8639   22.5715 H   0  0  0  0  0  0  0  0  0  0  0  0
   22.1835   20.6328   21.1971 C   0  0  0  0  0  0  0  0  0  0  0  0
   22.9489   20.4946   21.9721 H   0  0  0  0  0  0  0  0  0  0  0  0
   22.4669   20.0306   20.3239 H   0  0  0  0  0  0  0  0  0  0  0  0
   22.1915   21.6888   20.8975 H   0  0  0  0  0  0  0  0  0  0  0  0
  1  2  1  0  0  0  0
  1  3  2  0  0  0  0
  1  4  1  0  0  0  0
  4  5  1  0  0  0  0
  4  6  2  0  0  0  0
  6  7  1  0  0  0  0
  6  8  1  0  0  0  0
  8  9  1  0  0  0  0
  8 10  1  0  0  0  0
  8 11  1  0  0  0  0
 11 12  1  0  0  0  0
 11 13  1  0  0  0  0
 11 14  1  0  0  0  0
 14 15  1  0  0  0  0
 14 16  1  0  0  0  0
 14 17  1  0  0  0  0
M  END
> <VConfSearch Rank>
325

> <Conf_Id>
36

> <Delta U+W>
0.000

> <U+W>
-53.409

> <U>
9.048

> <W>
-62.457

> <W(PB)>
-64.540

> <W(SA)>
2.084

> <Valence>
2.652

> <Coulomb>
5.578

> <VdW>
0.818

> <VdW6>
-4.534

> <VdW12>
5.352

> <Bond>
0.063

> <Angle>
2.579

> <Pdih>
0.010

> <Idih>
0.000

> <Tether>
0.000

$$$$
VeraChem MOL file


 17 16  0  0  0  0  0  0  0  0999 V2000     
   21.1204   17.5058   24.6765 C   0  0  0  0  0  0  0  0  0  0  0  0
   21.8247   18.2947   25.2782 O   0  5  0  0  0  0  0  0  0  0  0  0
   21.0554   16.3265   24.9641 O   0  0  0  0  0  0  0  0  0  0  0  0
   20.2920   17.9820   23.5358 C   0  0  0  0  0  0  0  0  0  0  0  0
   19.6857   17.2263   23.0416 H   0  0  0  0  0  0  0  0  0  0  0  0
   20.2667   19.2641   23.1062 C   0  0  0  0  0  0  0  0  0  0  0  0
   20.8719   20.0289   23.5927 H   0  0  0  0  0  0  0  0  0  0  0  0
   19.4227   19.7398   21.9440 C   0  0  0  0  0  0  0  0  0  0  0  0
   19.2160   20.8128   22.0544 H   0  0  0  0  0  0  0  0  0  0  0  0
   18.4490   19.2313   21.9541 H   0  0  0  0  0  0  0  0  0  0  0  0
   20.1284   19.4862   20.5962 C   0  0  0  0  0  0  0  0  0  0  0  0
   21.1011   19.9975   20.5877 H   0  0  0  0  0  0  0  0  0  0  0  0
   20.3323   18.4124   20.4822 H   0  0  0  0  0  0  0  0  0  0  0  0
   19.2786   19.9767   19.4068 C   0  0  0  0  0  0  0  0  0  0  0  0
   19.0864   21.0552   19.4794 H   0  0  0  0  0  0  0  0  0  0  0  0
   19.7965   19.7880   18.4575 H   0  0  0  0  0  0  0  0  0  0  0  0
   18.3117   19.4575   19.3743 H   0  0  0  0  0  0  0  0  0  0  0  0
  1  2  1  0  0  0  0
  1  3  2  0  0  0  0
  1  4  1  0  0  0  0
  4  5  1  0  0  0  0
  4  6  2  0  0  0  0
  6  7  1  0  0  0  0
  6  8  1  0  0  0  0
  8  9  1  0  0  0  0
  8 10  1  0  0  0  0
  8 11  1  0  0  0  0
 11 12  1  0  0  0  0
 11 13  1  0  0  0  0
 11 14  1  0  0  0  0
 14 15  1  0  0  0  0
 14 16  1  0  0  0  0
 14 17  1  0  0  0  0
M  END
> <VConfSearch Rank>
326

> <Conf_Id>
1

> <Delta U+W>
0.030

> <U+W>
-53.378

> <U>
9.048

> <W>
-62.426

> <W(PB)>
-64.506

> <W(SA)>
2.080

> <Valence>
2.652

> <Coulomb>
5.578

> <VdW>
0.818

> <VdW6>
-4.535

> <VdW12>
5.352

> <Bond>
0.063

> <Angle>
2.579

> <Pdih>
0.010

> <Idih>
0.000

> <Tether>
0.000

$$$$
VeraChem MOL file


 17 16  0  0  0  0  0  0  0  0999 V2000     
   18.8634   19.0534   19.1922 C   0  0  0  0  0  0  0  0  0  0  0  0
   18.8395   20.2458   18.9513 O   0  5  0  0  0  0  0  0  0  0  0  0
   18.7576   18.2036   18.3293 O   0  0  0  0  0  0  0  0  0  0  0  0
   19.0248   18.5901   20.5969 C   0  0  0  0  0  0  0  0  0  0  0  0
   19.0371   17.5124   20.7429 H   0  0  0  0  0  0  0  0  0  0  0  0
   19.1547   19.4225   21.6548 C   0  0  0  0  0  0  0  0  0  0  0  0
   19.1471   20.5038   21.5195 H   0  0  0  0  0  0  0  0  0  0  0  0
   19.3224   18.9436   23.0815 C   0  0  0  0  0  0  0  0  0  0  0  0
   18.6613   18.0852   23.2620 H   0  0  0  0  0  0  0  0  0  0  0  0
   19.0015   19.7291   23.7788 H   0  0  0  0  0  0  0  0  0  0  0  0
   20.7784   18.5363   23.3973 C   0  0  0  0  0  0  0  0  0  0  0  0
   20.8190   18.1006   24.4051 H   0  0  0  0  0  0  0  0  0  0  0  0
   21.1021   17.7494   22.7020 H   0  0  0  0  0  0  0  0  0  0  0  0
   21.7554   19.7291   23.3237 C   0  0  0  0  0  0  0  0  0  0  0  0
   21.4583   20.5236   24.0205 H   0  0  0  0  0  0  0  0  0  0  0  0
   22.7729   19.4113   23.5859 H   0  0  0  0  0  0  0  0  0  0  0  0
   21.7861   20.1541   22.3120 H   0  0  0  0  0  0  0  0  0  0  0  0
  1  2  1  0  0  0  0
  1  3  2  0  0  0  0
  1  4  1  0  0  0  0
  4  5  1  0  0  0  0
  4  6  2  0  0  0  0
  6  7  1  0  0  0  0
  6  8  1  0  0  0  0
  8  9  1  0  0  0  0
  8 10  1  0  0  0  0
  8 11  1  0  0  0  0
 11 12  1  0  0  0  0
 11 13  1  0  0  0  0
 11 14  1  0  0  0  0
 14 15  1  0  0  0  0
 14 16  1  0  0  0  0
 14 17  1  0  0  0  0
M  END
> <VConfSearch Rank>
327

> <Conf_Id>
3

> <Delta U+W>
0.531

> <U+W>
-52.878

> <U>
10.067

> <W>
-62.945

> <W(PB)>
-64.982

> <W(SA)>
2.037

> <Valence>
2.779

> <Coulomb>
6.474

> <VdW>
0.815

> <VdW6>
-5.088

> <VdW12>
5.902

> <Bond>
0.078

> <Angle>
2.651

> <Pdih>
0.050

> <Idih>
0.000

> <Tether>
0.000

$$$$
VeraChem MOL file


 17 16  0  0  0  0  0  0  0  0999 V2000     
   22.7327   20.0356   22.8817 C   0  0  0  0  0  0  0  0  0  0  0  0
   23.8179   19.5403   22.6479 O   0  5  0  0  0  0  0  0  0  0  0  0
   22.5467   20.8180   23.7948 O   0  0  0  0  0  0  0  0  0  0  0  0
   21.5986   19.6554   21.9965 C   0  0  0  0  0  0  0  0  0  0  0  0
   21.8337   18.9527   21.2006 H   0  0  0  0  0  0  0  0  0  0  0  0
   20.3390   20.1266   22.1412 C   0  0  0  0  0  0  0  0  0  0  0  0
   20.0940   20.8282   22.9382 H   0  0  0  0  0  0  0  0  0  0  0  0
   19.1860   19.7356   21.2401 C   0  0  0  0  0  0  0  0  0  0  0  0
   19.5582   19.2892   20.3080 H   0  0  0  0  0  0  0  0  0  0  0  0
   18.6371   20.6406   20.9473 H   0  0  0  0  0  0  0  0  0  0  0  0
   18.2088   18.7582   21.9294 C   0  0  0  0  0  0  0  0  0  0  0  0
   17.8380   19.2029   22.8634 H   0  0  0  0  0  0  0  0  0  0  0  0
   17.3329   18.6112   21.2825 H   0  0  0  0  0  0  0  0  0  0  0  0
   18.8512   17.3862   22.2255 C   0  0  0  0  0  0  0  0  0  0  0  0
   19.6935   17.4852   22.9225 H   0  0  0  0  0  0  0  0  0  0  0  0
   18.1181   16.7063   22.6784 H   0  0  0  0  0  0  0  0  0  0  0  0
   19.2225   16.9195   21.3038 H   0  0  0  0  0  0  0  0  0  0  0  0
  1  2  1  0  0  0  0
  1  3  2  0  0  0  0
  1  4  1  0  0  0  0
  4  5  1  0  0  0  0
  4  6  2  0  0  0  0
  6  7  1  0  0  0  0
  6  8  1  0  0  0  0
  8  9  1  0  0  0  0
  8 10  1  0  0  0  0
  8 11  1  0  0  0  0
 11 12  1  0  0  0  0
 11 13  1  0  0  0  0
 11 14  1  0  0  0  0
 14 15  1  0  0  0  0
 14 16  1  0  0  0  0
 14 17  1  0  0  0  0
M  END
> <VConfSearch Rank>
328

> <Conf_Id>
45

> <Delta U+W>
0.562

> <U+W>
-52.846

> <U>
10.243

> <W>
-63.089

> <W(PB)>
-65.116

> <W(SA)>
2.026

> <Valence>
2.822

> <Coulomb>
6.637

> <VdW>
0.785

> <VdW6>
-5.216

> <VdW12>
6.001

> <Bond>
0.080

> <Angle>
2.678

> <Pdih>
0.064

> <Idih>
0.000

> <Tether>
0.000

$$$$
VeraChem MOL file


 17 16  0  0  0  0  0  0  0  0999 V2000     
   21.1579   22.1825   22.7063 C   0  0  0  0  0  0  0  0  0  0  0  0
   22.1336   22.4885   23.3636 O   0  5  0  0  0  0  0  0  0  0  0  0
   20.2894   22.9788   22.4031 O   0  0  0  0  0  0  0  0  0  0  0  0
   21.0437   20.7665   22.2635 C   0  0  0  0  0  0  0  0  0  0  0  0
   21.8533   20.1072   22.5681 H   0  0  0  0  0  0  0  0  0  0  0  0
   20.0139   20.2870   21.5296 C   0  0  0  0  0  0  0  0  0  0  0  0
   19.1963   20.9382   21.2211 H   0  0  0  0  0  0  0  0  0  0  0  0
   19.9042   18.8448   21.0852 C   0  0  0  0  0  0  0  0  0  0  0  0
   20.8952   18.4614   20.8065 H   0  0  0  0  0  0  0  0  0  0  0  0
   19.2807   18.7844   20.1830 H   0  0  0  0  0  0  0  0  0  0  0  0
   19.2964   17.9602   22.1929 C   0  0  0  0  0  0  0  0  0  0  0  0
   19.9214   18.0163   23.0950 H   0  0  0  0  0  0  0  0  0  0  0  0
   18.3045   18.3445   22.4686 H   0  0  0  0  0  0  0  0  0  0  0  0
   19.1725   16.4902   21.7443 C   0  0  0  0  0  0  0  0  0  0  0  0
   18.5259   16.4019   20.8615 H   0  0  0  0  0  0  0  0  0  0  0  0
   20.1560   16.0721   21.4924 H   0  0  0  0  0  0  0  0  0  0  0  0
   18.7387   15.8768   22.5448 H   0  0  0  0  0  0  0  0  0  0  0  0
  1  2  1  0  0  0  0
  1  3  2  0  0  0  0
  1  4  1  0  0  0  0
  4  5  1  0  0  0  0
  4  6  2  0  0  0  0
  6  7  1  0  0  0  0
  6  8  1  0  0  0  0
  8  9  1  0  0  0  0
  8 10  1  0  0  0  0
  8 11  1  0  0  0  0
 11 12  1  0  0  0  0
 11 13  1  0  0  0  0
 11 14  1  0  0  0  0
 14 15  1  0  0  0  0
 14 16  1  0  0  0  0
 14 17  1  0  0  0  0
M  END
> <VConfSearch Rank>
329

> <Conf_Id>
36

> <Delta U+W>
0.000

> <U+W>
-53.409

> <U>
9.048

> <W>
-62.457

> <W(PB)>
-64.540

> <W(SA)>
2.084

> <Valence>
2.652

> <Coulomb>
5.578

> <VdW>
0.818

> <VdW6>
-4.534

> <VdW12>
5.352

> <Bond>
0.063

> <Angle>
2.579

> <Pdih>
0.010

> <Idih>
0.000

> <Tether>
0.000

$$$$
VeraChem MOL file


 17 16  0  0  0  0  0  0  0  0999 V2000     
   18.8536   20.6228   19.1403 C   0  0  0  0  0  0  0  0  0  0  0  0
   19.7271   21.3819   18.7647 O   0  5  0  0  0  0  0  0  0  0  0  0
   17.7280   20.6329   18.6812 O   0  0  0  0  0  0  0  0  0  0  0  0
   19.1524   19.6287   20.2065 C   0  0  0  0  0  0  0  0  0  0  0  0
   18.3281   18.9807   20.4957 H   0  0  0  0  0  0  0  0  0  0  0  0
   20.3583   19.5063   20.8063 C   0  0  0  0  0  0  0  0  0  0  0  0
   21.1904   20.1518   20.5258 H   0  0  0  0  0  0  0  0  0  0  0  0
   20.6534   18.4938   21.8912 C   0  0  0  0  0  0  0  0  0  0  0  0
   21.7294   18.2739   21.9063 H   0  0  0  0  0  0  0  0  0  0  0  0
   20.1439   17.5462   21.6691 H   0  0  0  0  0  0  0  0  0  0  0  0
   20.2124   19.0096   23.2763 C   0  0  0  0  0  0  0  0  0  0  0  0
   20.7249   19.9563   23.4971 H   0  0  0  0  0  0  0  0  0  0  0  0
   19.1352   19.2261   23.2641 H   0  0  0  0  0  0  0  0  0  0  0  0
   20.5182   17.9869   24.3890 C   0  0  0  0  0  0  0  0  0  0  0  0
   21.5943   17.7761   24.4441 H   0  0  0  0  0  0  0  0  0  0  0  0
   20.1979   18.3712   25.3662 H   0  0  0  0  0  0  0  0  0  0  0  0
   19.9921   17.0404   24.2081 H   0  0  0  0  0  0  0  0  0  0  0  0
  1  2  1  0  0  0  0
  1  3  2  0  0  0  0
  1  4  1  0  0  0  0
  4  5  1  0  0  0  0
  4  6  2  0  0  0  0
  6  7  1  0  0  0  0
  6  8  1  0  0  0  0
  8  9  1  0  0  0  0
  8 10  1  0  0  0  0
  8 11  1  0  0  0  0
 11 12  1  0  0  0  0
 11 13  1  0  0  0  0
 11 14  1  0  0  0  0
 14 15  1  0  0  0  0
 14 16  1  0  0  0  0
 14 17  1  0  0  0  0
M  END
> <VConfSearch Rank>
330

> <Conf_Id>
1

> <Delta U+W>
0.030

> <U+W>
-53.378

> <U>
9.048

> <W>
-62.426

> <W(PB)>
-64.506

> <W(SA)>
2.080

> <Valence>
2.652

> <Coulomb>
5.578

> <VdW>
0.818

> <VdW6>
-4.535

> <VdW12>
5.352

> <Bond>
0.063

> <Angle>
2.579

> <Pdih>
0.010

> <Idih>
0.000

> <Tether>
0.000

$$$$
VeraChem MOL file


 17 16  0  0  0  0  0  0  0  0999 V2000     
   22.3640   17.9158   20.4329 C   0  0  0  0  0  0  0  0  0  0  0  0
   23.2243   18.7447   20.6635 O   0  5  0  0  0  0  0  0  0  0  0  0
   22.6109   16.8206   19.9666 O   0  0  0  0  0  0  0  0  0  0  0  0
   20.9396   18.2342   20.7225 C   0  0  0  0  0  0  0  0  0  0  0  0
   20.2217   17.4504   20.4924 H   0  0  0  0  0  0  0  0  0  0  0  0
   20.5209   19.4104   21.2424 C   0  0  0  0  0  0  0  0  0  0  0  0
   21.2320   20.2013   21.4798 H   0  0  0  0  0  0  0  0  0  0  0  0
   19.0697   19.7259   21.5381 C   0  0  0  0  0  0  0  0  0  0  0  0
   18.4364   19.3405   20.7276 H   0  0  0  0  0  0  0  0  0  0  0  0
   18.9201   20.8139   21.5526 H   0  0  0  0  0  0  0  0  0  0  0  0
   18.5986   19.1220   22.8793 C   0  0  0  0  0  0  0  0  0  0  0  0
   17.5186   19.2913   22.9898 H   0  0  0  0  0  0  0  0  0  0  0  0
   18.7459   18.0332   22.8674 H   0  0  0  0  0  0  0  0  0  0  0  0
   19.3317   19.7326   24.0928 C   0  0  0  0  0  0  0  0  0  0  0  0
   19.1877   20.8201   24.1322 H   0  0  0  0  0  0  0  0  0  0  0  0
   18.9495   19.3060   25.0292 H   0  0  0  0  0  0  0  0  0  0  0  0
   20.4099   19.5309   24.0468 H   0  0  0  0  0  0  0  0  0  0  0  0
  1  2  1  0  0  0  0
  1  3  2  0  0  0  0
  1  4  1  0  0  0  0
  4  5  1  0  0  0  0
  4  6  2  0  0  0  0
  6  7  1  0  0  0  0
  6  8  1  0  0  0  0
  8  9  1  0  0  0  0
  8 10  1  0  0  0  0
  8 11  1  0  0  0  0
 11 12  1  0  0  0  0
 11 13  1  0  0  0  0
 11 14  1  0  0  0  0
 14 15  1  0  0  0  0
 14 16  1  0  0  0  0
 14 17  1  0  0  0  0
M  END
> <VConfSearch Rank>
331

> <Conf_Id>
3

> <Delta U+W>
0.531

> <U+W>
-52.878

> <U>
10.067

> <W>
-62.945

> <W(PB)>
-64.982

> <W(SA)>
2.037

> <Valence>
2.779

> <Coulomb>
6.474

> <VdW>
0.815

> <VdW6>
-5.088

> <VdW12>
5.902

> <Bond>
0.078

> <Angle>
2.651

> <Pdih>
0.050

> <Idih>
0.000

> <Tether>
0.000

$$$$
VeraChem MOL file


 17 16  0  0  0  0  0  0  0  0999 V2000     
   17.8491   17.6563   23.6600 C   0  0  0  0  0  0  0  0  0  0  0  0
   17.9639   16.7668   24.4807 O   0  5  0  0  0  0  0  0  0  0  0  0
   16.8092   17.8792   23.0689 O   0  0  0  0  0  0  0  0  0  0  0  0
   19.0455   18.4975   23.3862 C   0  0  0  0  0  0  0  0  0  0  0  0
   19.9414   18.2446   23.9485 H   0  0  0  0  0  0  0  0  0  0  0  0
   19.0621   19.5179   22.4985 C   0  0  0  0  0  0  0  0  0  0  0  0
   18.1700   19.7757   21.9282 H   0  0  0  0  0  0  0  0  0  0  0  0
   20.2825   20.3708   22.2199 C   0  0  0  0  0  0  0  0  0  0  0  0
   21.0227   20.2606   23.0241 H   0  0  0  0  0  0  0  0  0  0  0  0
   19.9878   21.4287   22.2191 H   0  0  0  0  0  0  0  0  0  0  0  0
   20.9368   20.0321   20.8626 C   0  0  0  0  0  0  0  0  0  0  0  0
   20.1963   20.1394   20.0578 H   0  0  0  0  0  0  0  0  0  0  0  0
   21.7324   20.7612   20.6563 H   0  0  0  0  0  0  0  0  0  0  0  0
   21.5372   18.6103   20.8310 C   0  0  0  0  0  0  0  0  0  0  0  0
   20.7590   17.8485   20.9697 H   0  0  0  0  0  0  0  0  0  0  0  0
   22.0267   18.4193   19.8673 H   0  0  0  0  0  0  0  0  0  0  0  0
   22.2863   18.4829   21.6232 H   0  0  0  0  0  0  0  0  0  0  0  0
  1  2  1  0  0  0  0
  1  3  2  0  0  0  0
  1  4  1  0  0  0  0
  4  5  1  0  0  0  0
  4  6  2  0  0  0  0
  6  7  1  0  0  0  0
  6  8  1  0  0  0  0
  8  9  1  0  0  0  0
  8 10  1  0  0  0  0
  8 11  1  0  0  0  0
 11 12  1  0  0  0  0
 11 13  1  0  0  0  0
 11 14  1  0  0  0  0
 14 15  1  0  0  0  0
 14 16  1  0  0  0  0
 14 17  1  0  0  0  0
M  END
> <VConfSearch Rank>
332

> <Conf_Id>
45

> <Delta U+W>
0.562

> <U+W>
-52.846

> <U>
10.243

> <W>
-63.089

> <W(PB)>
-65.116

> <W(SA)>
2.026

> <Valence>
2.822

> <Coulomb>
6.637

> <VdW>
0.785

> <VdW6>
-5.216

> <VdW12>
6.001

> <Bond>
0.080

> <Angle>
2.678

> <Pdih>
0.064

> <Idih>
0.000

> <Tether>
0.000

$$$$
VeraChem MOL file


 17 16  0  0  0  0  0  0  0  0999 V2000     
   21.3956   22.1855   21.9154 C   0  0  0  0  0  0  0  0  0  0  0  0
   21.8384   22.8285   22.8471 O   0  5  0  0  0  0  0  0  0  0  0  0
   21.1849   22.6699   20.8193 O   0  0  0  0  0  0  0  0  0  0  0  0
   21.1079   20.7444   22.1496 C   0  0  0  0  0  0  0  0  0  0  0  0
   21.3185   20.3750   23.1506 H   0  0  0  0  0  0  0  0  0  0  0  0
   20.6129   19.9116   21.2060 C   0  0  0  0  0  0  0  0  0  0  0  0
   20.3960   20.2718   20.2005 H   0  0  0  0  0  0  0  0  0  0  0  0
   20.3209   18.4477   21.4530 C   0  0  0  0  0  0  0  0  0  0  0  0
   21.0964   18.0139   22.0990 H   0  0  0  0  0  0  0  0  0  0  0  0
   20.3629   17.8988   20.5026 H   0  0  0  0  0  0  0  0  0  0  0  0
   18.9348   18.2527   22.1008 C   0  0  0  0  0  0  0  0  0  0  0  0
   18.8926   18.7979   23.0540 H   0  0  0  0  0  0  0  0  0  0  0  0
   18.1608   18.6855   21.4520 H   0  0  0  0  0  0  0  0  0  0  0  0
   18.6257   16.7623   22.3473 C   0  0  0  0  0  0  0  0  0  0  0  0
   18.6301   16.1990   21.4050 H   0  0  0  0  0  0  0  0  0  0  0  0
   19.3687   16.3129   23.0191 H   0  0  0  0  0  0  0  0  0  0  0  0
   17.6365   16.6436   22.8083 H   0  0  0  0  0  0  0  0  0  0  0  0
  1  2  1  0  0  0  0
  1  3  2  0  0  0  0
  1  4  1  0  0  0  0
  4  5  1  0  0  0  0
  4  6  2  0  0  0  0
  6  7  1  0  0  0  0
  6  8  1  0  0  0  0
  8  9  1  0  0  0  0
  8 10  1  0  0  0  0
  8 11  1  0  0  0  0
 11 12  1  0  0  0  0
 11 13  1  0  0  0  0
 11 14  1  0  0  0  0
 14 15  1  0  0  0  0
 14 16  1  0  0  0  0
 14 17  1  0  0  0  0
M  END
> <VConfSearch Rank>
333

> <Conf_Id>
36

> <Delta U+W>
0.000

> <U+W>
-53.409

> <U>
9.048

> <W>
-62.457

> <W(PB)>
-64.540

> <W(SA)>
2.084

> <Valence>
2.652

> <Coulomb>
5.578

> <VdW>
0.818

> <VdW6>
-4.534

> <VdW12>
5.352

> <Bond>
0.063

> <Angle>
2.579

> <Pdih>
0.010

> <Idih>
0.000

> <Tether>
0.000

$$$$
VeraChem MOL file


 17 16  0  0  0  0  0  0  0  0999 V2000     
   20.6933   16.7990   24.2912 C   0  0  0  0  0  0  0  0  0  0  0  0
   20.2472   17.2323   25.3369 O   0  5  0  0  0  0  0  0  0  0  0  0
   21.4210   15.8268   24.2365 O   0  0  0  0  0  0  0  0  0  0  0  0
   20.3461   17.4709   23.0097 C   0  0  0  0  0  0  0  0  0  0  0  0
   20.7777   17.0334   22.1123 H   0  0  0  0  0  0  0  0  0  0  0  0
   19.5497   18.5604   22.9214 C   0  0  0  0  0  0  0  0  0  0  0  0
   19.1139   19.0082   23.8144 H   0  0  0  0  0  0  0  0  0  0  0  0
   19.2031   19.2388   21.6142 C   0  0  0  0  0  0  0  0  0  0  0  0
   18.2502   19.7748   21.7194 H   0  0  0  0  0  0  0  0  0  0  0  0
   19.0530   18.4858   20.8285 H   0  0  0  0  0  0  0  0  0  0  0  0
   20.3064   20.2270   21.1840 C   0  0  0  0  0  0  0  0  0  0  0  0
   20.4532   20.9804   21.9704 H   0  0  0  0  0  0  0  0  0  0  0  0
   21.2597   19.6915   21.0744 H   0  0  0  0  0  0  0  0  0  0  0  0
   19.9562   20.9296   19.8569 C   0  0  0  0  0  0  0  0  0  0  0  0
   19.0221   21.4993   19.9483 H   0  0  0  0  0  0  0  0  0  0  0  0
   20.7521   21.6281   19.5673 H   0  0  0  0  0  0  0  0  0  0  0  0
   19.8347   20.1995   19.0460 H   0  0  0  0  0  0  0  0  0  0  0  0
  1  2  1  0  0  0  0
  1  3  2  0  0  0  0
  1  4  1  0  0  0  0
  4  5  1  0  0  0  0
  4  6  2  0  0  0  0
  6  7  1  0  0  0  0
  6  8  1  0  0  0  0
  8  9  1  0  0  0  0
  8 10  1  0  0  0  0
  8 11  1  0  0  0  0
 11 12  1  0  0  0  0
 11 13  1  0  0  0  0
 11 14  1  0  0  0  0
 14 15  1  0  0  0  0
 14 16  1  0  0  0  0
 14 17  1  0  0  0  0
M  END
> <VConfSearch Rank>
334

> <Conf_Id>
1

> <Delta U+W>
0.030

> <U+W>
-53.378

> <U>
9.048

> <W>
-62.426

> <W(PB)>
-64.506

> <W(SA)>
2.080

> <Valence>
2.652

> <Coulomb>
5.578

> <VdW>
0.818

> <VdW6>
-4.535

> <VdW12>
5.352

> <Bond>
0.063

> <Angle>
2.579

> <Pdih>
0.010

> <Idih>
0.000

> <Tether>
0.000

$$$$
VeraChem MOL file


 17 16  0  0  0  0  0  0  0  0999 V2000     
   17.3421   17.6182   22.4832 C   0  0  0  0  0  0  0  0  0  0  0  0
   17.4458   17.3159   23.6572 O   0  5  0  0  0  0  0  0  0  0  0  0
   16.2848   17.5847   21.8842 O   0  0  0  0  0  0  0  0  0  0  0  0
   18.5483   18.0476   21.7251 C   0  0  0  0  0  0  0  0  0  0  0  0
   18.3864   18.3028   20.6804 H   0  0  0  0  0  0  0  0  0  0  0  0
   19.7861   18.1325   22.2633 C   0  0  0  0  0  0  0  0  0  0  0  0
   19.9589   17.8824   23.3098 H   0  0  0  0  0  0  0  0  0  0  0  0
   21.0085   18.5741   21.4863 C   0  0  0  0  0  0  0  0  0  0  0  0
   20.9838   18.1346   20.4800 H   0  0  0  0  0  0  0  0  0  0  0  0
   21.9164   18.1862   21.9676 H   0  0  0  0  0  0  0  0  0  0  0  0
   21.1044   20.1109   21.3655 C   0  0  0  0  0  0  0  0  0  0  0  0
   21.9457   20.3675   20.7070 H   0  0  0  0  0  0  0  0  0  0  0  0
   20.1978   20.5018   20.8831 H   0  0  0  0  0  0  0  0  0  0  0  0
   21.3047   20.8003   22.7320 C   0  0  0  0  0  0  0  0  0  0  0  0
   22.2132   20.4336   23.2273 H   0  0  0  0  0  0  0  0  0  0  0  0
   21.4023   21.8863   22.6057 H   0  0  0  0  0  0  0  0  0  0  0  0
   20.4522   20.6144   23.3981 H   0  0  0  0  0  0  0  0  0  0  0  0
  1  2  1  0  0  0  0
  1  3  2  0  0  0  0
  1  4  1  0  0  0  0
  4  5  1  0  0  0  0
  4  6  2  0  0  0  0
  6  7  1  0  0  0  0
  6  8  1  0  0  0  0
  8  9  1  0  0  0  0
  8 10  1  0  0  0  0
  8 11  1  0  0  0  0
 11 12  1  0  0  0  0
 11 13  1  0  0  0  0
 11 14  1  0  0  0  0
 14 15  1  0  0  0  0
 14 16  1  0  0  0  0
 14 17  1  0  0  0  0
M  END
> <VConfSearch Rank>
335

> <Conf_Id>
3

> <Delta U+W>
0.531

> <U+W>
-52.878

> <U>
10.067

> <W>
-62.945

> <W(PB)>
-64.982

> <W(SA)>
2.037

> <Valence>
2.779

> <Coulomb>
6.474

> <VdW>
0.815

> <VdW6>
-5.088

> <VdW12>
5.902

> <Bond>
0.078

> <Angle>
2.651

> <Pdih>
0.050

> <Idih>
0.000

> <Tether>
0.000

$$$$
VeraChem MOL file


 17 16  0  0  0  0  0  0  0  0999 V2000     
   18.2708   21.3087   20.9247 C   0  0  0  0  0  0  0  0  0  0  0  0
   17.3933   21.9645   21.4518 O   0  5  0  0  0  0  0  0  0  0  0  0
   18.3724   21.1903   19.7180 O   0  0  0  0  0  0  0  0  0  0  0  0
   19.2533   20.6335   21.8152 C   0  0  0  0  0  0  0  0  0  0  0  0
   19.1048   20.7806   22.8824 H   0  0  0  0  0  0  0  0  0  0  0  0
   20.2773   19.8719   21.3671 C   0  0  0  0  0  0  0  0  0  0  0  0
   20.4312   19.7163   20.2995 H   0  0  0  0  0  0  0  0  0  0  0  0
   21.2743   19.1835   22.2762 C   0  0  0  0  0  0  0  0  0  0  0  0
   21.2462   19.6222   23.2830 H   0  0  0  0  0  0  0  0  0  0  0  0
   22.2888   19.3601   21.8945 H   0  0  0  0  0  0  0  0  0  0  0  0
   21.0312   17.6611   22.3666 C   0  0  0  0  0  0  0  0  0  0  0  0
   21.0565   17.2219   21.3597 H   0  0  0  0  0  0  0  0  0  0  0  0
   21.8533   17.1997   22.9309 H   0  0  0  0  0  0  0  0  0  0  0  0
   19.6929   17.3130   23.0526 C   0  0  0  0  0  0  0  0  0  0  0  0
   18.8412   17.7036   22.4807 H   0  0  0  0  0  0  0  0  0  0  0  0
   19.5725   16.2250   23.1343 H   0  0  0  0  0  0  0  0  0  0  0  0
   19.6489   17.7361   24.0646 H   0  0  0  0  0  0  0  0  0  0  0  0
  1  2  1  0  0  0  0
  1  3  2  0  0  0  0
  1  4  1  0  0  0  0
  4  5  1  0  0  0  0
  4  6  2  0  0  0  0
  6  7  1  0  0  0  0
  6  8  1  0  0  0  0
  8  9  1  0  0  0  0
  8 10  1  0  0  0  0
  8 11  1  0  0  0  0
 11 12  1  0  0  0  0
 11 13  1  0  0  0  0
 11 14  1  0  0  0  0
 14 15  1  0  0  0  0
 14 16  1  0  0  0  0
 14 17  1  0  0  0  0
M  END
> <VConfSearch Rank>
336

> <Conf_Id>
45

> <Delta U+W>
0.562

> <U+W>
-52.846

> <U>
10.243

> <W>
-63.089

> <W(PB)>
-65.116

> <W(SA)>
2.026

> <Valence>
2.822

> <Coulomb>
6.637

> <VdW>
0.785

> <VdW6>
-5.216

> <VdW12>
6.001

> <Bond>
0.080

> <Angle>
2.678

> <Pdih>
0.064

> <Idih>
0.000

> <Tether>
0.000

$$$$
VeraChem MOL file


 17 16  0  0  0  0  0  0  0  0999 V2000     
   20.2619   20.4197   18.8134 C   0  0  0  0  0  0  0  0  0  0  0  0
   21.1677   20.3128   18.0099 O   0  5  0  0  0  0  0  0  0  0  0  0
   19.3660   21.2343   18.6945 O   0  0  0  0  0  0  0  0  0  0  0  0
   20.2700   19.5020   19.9847 C   0  0  0  0  0  0  0  0  0  0  0  0
   21.0982   18.7985   20.0307 H   0  0  0  0  0  0  0  0  0  0  0  0
   19.3280   19.5101   20.9551 C   0  0  0  0  0  0  0  0  0  0  0  0
   18.4952   20.2122   20.9201 H   0  0  0  0  0  0  0  0  0  0  0  0
   19.3448   18.5748   22.1443 C   0  0  0  0  0  0  0  0  0  0  0  0
   19.6872   17.5783   21.8335 H   0  0  0  0  0  0  0  0  0  0  0  0
   18.3233   18.4487   22.5276 H   0  0  0  0  0  0  0  0  0  0  0  0
   20.2552   19.1109   23.2680 C   0  0  0  0  0  0  0  0  0  0  0  0
   21.2787   19.2336   22.8873 H   0  0  0  0  0  0  0  0  0  0  0  0
   19.9096   20.1067   23.5785 H   0  0  0  0  0  0  0  0  0  0  0  0
   20.2704   18.1678   24.4878 C   0  0  0  0  0  0  0  0  0  0  0  0
   19.2627   18.0526   24.9081 H   0  0  0  0  0  0  0  0  0  0  0  0
   20.6421   17.1726   24.2103 H   0  0  0  0  0  0  0  0  0  0  0  0
   20.9229   18.5654   25.2760 H   0  0  0  0  0  0  0  0  0  0  0  0
  1  2  1  0  0  0  0
  1  3  2  0  0  0  0
  1  4  1  0  0  0  0
  4  5  1  0  0  0  0
  4  6  2  0  0  0  0
  6  7  1  0  0  0  0
  6  8  1  0  0  0  0
  8  9  1  0  0  0  0
  8 10  1  0  0  0  0
  8 11  1  0  0  0  0
 11 12  1  0  0  0  0
 11 13  1  0  0  0  0
 11 14  1  0  0  0  0
 14 15  1  0  0  0  0
 14 16  1  0  0  0  0
 14 17  1  0  0  0  0
M  END
> <VConfSearch Rank>
337

> <Conf_Id>
36

> <Delta U+W>
0.000

> <U+W>
-53.409

> <U>
9.048

> <W>
-62.457

> <W(PB)>
-64.540

> <W(SA)>
2.084

> <Valence>
2.652

> <Coulomb>
5.578

> <VdW>
0.818

> <VdW6>
-4.534

> <VdW12>
5.352

> <Bond>
0.063

> <Angle>
2.579

> <Pdih>
0.010

> <Idih>
0.000

> <Tether>
0.000

$$$$
VeraChem MOL file


 17 16  0  0  0  0  0  0  0  0999 V2000     
   23.0119   17.5485   21.8464 C   0  0  0  0  0  0  0  0  0  0  0  0
   23.2544   17.1996   22.9865 O   0  5  0  0  0  0  0  0  0  0  0  0
   23.8365   17.5079   20.9542 O   0  0  0  0  0  0  0  0  0  0  0  0
   21.6530   18.0492   21.5043 C   0  0  0  0  0  0  0  0  0  0  0  0
   21.5028   18.3444   20.4684 H   0  0  0  0  0  0  0  0  0  0  0  0
   20.6403   18.1492   22.3951 C   0  0  0  0  0  0  0  0  0  0  0  0
   20.7805   17.8583   23.4360 H   0  0  0  0  0  0  0  0  0  0  0  0
   19.2617   18.6613   22.0395 C   0  0  0  0  0  0  0  0  0  0  0  0
   18.5247   18.2537   22.7446 H   0  0  0  0  0  0  0  0  0  0  0  0
   18.9729   18.3011   21.0427 H   0  0  0  0  0  0  0  0  0  0  0  0
   19.2091   20.2024   22.0715 C   0  0  0  0  0  0  0  0  0  0  0  0
   19.4962   20.5602   23.0701 H   0  0  0  0  0  0  0  0  0  0  0  0
   19.9430   20.6119   21.3635 H   0  0  0  0  0  0  0  0  0  0  0  0
   17.8045   20.7321   21.7191 C   0  0  0  0  0  0  0  0  0  0  0  0
   17.0551   20.3628   22.4314 H   0  0  0  0  0  0  0  0  0  0  0  0
   17.7867   21.8294   21.7470 H   0  0  0  0  0  0  0  0  0  0  0  0
   17.5061   20.4139   20.7115 H   0  0  0  0  0  0  0  0  0  0  0  0
  1  2  1  0  0  0  0
  1  3  2  0  0  0  0
  1  4  1  0  0  0  0
  4  5  1  0  0  0  0
  4  6  2  0  0  0  0
  6  7  1  0  0  0  0
  6  8  1  0  0  0  0
  8  9  1  0  0  0  0
  8 10  1  0  0  0  0
  8 11  1  0  0  0  0
 11 12  1  0  0  0  0
 11 13  1  0  0  0  0
 11 14  1  0  0  0  0
 14 15  1  0  0  0  0
 14 16  1  0  0  0  0
 14 17  1  0  0  0  0
M  END
> <VConfSearch Rank>
338

> <Conf_Id>
1

> <Delta U+W>
0.030

> <U+W>
-53.378

> <U>
9.048

> <W>
-62.426

> <W(PB)>
-64.506

> <W(SA)>
2.080

> <Valence>
2.652

> <Coulomb>
5.578

> <VdW>
0.818

> <VdW6>
-4.535

> <VdW12>
5.352

> <Bond>
0.063

> <Angle>
2.579

> <Pdih>
0.010

> <Idih>
0.000

> <Tether>
0.000

$$$$
VeraChem MOL file


 17 16  0  0  0  0  0  0  0  0999 V2000     
   22.8057   17.8389   22.4512 C   0  0  0  0  0  0  0  0  0  0  0  0
   22.8777   17.1403   21.4576 O   0  5  0  0  0  0  0  0  0  0  0  0
   23.7735   18.1222   23.1302 O   0  0  0  0  0  0  0  0  0  0  0  0
   21.4860   18.3791   22.8763 C   0  0  0  0  0  0  0  0  0  0  0  0
   21.4916   18.9950   23.7726 H   0  0  0  0  0  0  0  0  0  0  0  0
   20.3286   18.1465   22.2166 C   0  0  0  0  0  0  0  0  0  0  0  0
   20.3121   17.5337   21.3156 H   0  0  0  0  0  0  0  0  0  0  0  0
   18.9896   18.7030   22.6531 C   0  0  0  0  0  0  0  0  0  0  0  0
   18.9049   18.6437   23.7466 H   0  0  0  0  0  0  0  0  0  0  0  0
   18.1784   18.0826   22.2491 H   0  0  0  0  0  0  0  0  0  0  0  0
   18.7893   20.1685   22.2085 C   0  0  0  0  0  0  0  0  0  0  0  0
   17.8540   20.5502   22.6406 H   0  0  0  0  0  0  0  0  0  0  0  0
   19.5989   20.7921   22.6123 H   0  0  0  0  0  0  0  0  0  0  0  0
   18.7339   20.3185   20.6732 C   0  0  0  0  0  0  0  0  0  0  0  0
   17.9227   19.7130   20.2485 H   0  0  0  0  0  0  0  0  0  0  0  0
   18.5573   21.3653   20.3939 H   0  0  0  0  0  0  0  0  0  0  0  0
   19.6773   20.0013   20.2099 H   0  0  0  0  0  0  0  0  0  0  0  0
  1  2  1  0  0  0  0
  1  3  2  0  0  0  0
  1  4  1  0  0  0  0
  4  5  1  0  0  0  0
  4  6  2  0  0  0  0
  6  7  1  0  0  0  0
  6  8  1  0  0  0  0
  8  9  1  0  0  0  0
  8 10  1  0  0  0  0
  8 11  1  0  0  0  0
 11 12  1  0  0  0  0
 11 13  1  0  0  0  0
 11 14  1  0  0  0  0
 14 15  1  0  0  0  0
 14 16  1  0  0  0  0
 14 17  1  0  0  0  0
M  END
> <VConfSearch Rank>
339

> <Conf_Id>
3

> <Delta U+W>
0.531

> <U+W>
-52.878

> <U>
10.067

> <W>
-62.945

> <W(PB)>
-64.982

> <W(SA)>
2.037

> <Valence>
2.779

> <Coulomb>
6.474

> <VdW>
0.815

> <VdW6>
-5.088

> <VdW12>
5.902

> <Bond>
0.078

> <Angle>
2.651

> <Pdih>
0.050

> <Idih>
0.000

> <Tether>
0.000

$$$$
VeraChem MOL file


 17 16  0  0  0  0  0  0  0  0999 V2000     
   18.4945   17.1914   23.8876 C   0  0  0  0  0  0  0  0  0  0  0  0
   17.2982   17.0220   24.0212 O   0  5  0  0  0  0  0  0  0  0  0  0
   19.3066   16.8606   24.7311 O   0  0  0  0  0  0  0  0  0  0  0  0
   18.9618   17.8303   22.6276 C   0  0  0  0  0  0  0  0  0  0  0  0
   18.1843   18.1009   21.9169 H   0  0  0  0  0  0  0  0  0  0  0  0
   20.2609   18.0814   22.3467 C   0  0  0  0  0  0  0  0  0  0  0  0
   21.0458   17.8168   23.0548 H   0  0  0  0  0  0  0  0  0  0  0  0
   20.7332   18.7344   21.0642 C   0  0  0  0  0  0  0  0  0  0  0  0
   19.9492   18.6892   20.2961 H   0  0  0  0  0  0  0  0  0  0  0  0
   21.5845   18.1668   20.6654 H   0  0  0  0  0  0  0  0  0  0  0  0
   21.1657   20.2015   21.2783 C   0  0  0  0  0  0  0  0  0  0  0  0
   21.9481   20.2480   22.0485 H   0  0  0  0  0  0  0  0  0  0  0  0
   21.6156   20.5816   20.3508 H   0  0  0  0  0  0  0  0  0  0  0  0
   19.9878   21.1158   21.6774 C   0  0  0  0  0  0  0  0  0  0  0  0
   19.5520   20.8050   22.6357 H   0  0  0  0  0  0  0  0  0  0  0  0
   20.3243   22.1553   21.7824 H   0  0  0  0  0  0  0  0  0  0  0  0
   19.1964   21.0907   20.9170 H   0  0  0  0  0  0  0  0  0  0  0  0
  1  2  1  0  0  0  0
  1  3  2  0  0  0  0
  1  4  1  0  0  0  0
  4  5  1  0  0  0  0
  4  6  2  0  0  0  0
  6  7  1  0  0  0  0
  6  8  1  0  0  0  0
  8  9  1  0  0  0  0
  8 10  1  0  0  0  0
  8 11  1  0  0  0  0
 11 12  1  0  0  0  0
 11 13  1  0  0  0  0
 11 14  1  0  0  0  0
 14 15  1  0  0  0  0
 14 16  1  0  0  0  0
 14 17  1  0  0  0  0
M  END
> <VConfSearch Rank>
340

> <Conf_Id>
45

> <Delta U+W>
0.562

> <U+W>
-52.846

> <U>
10.243

> <W>
-63.089

> <W(PB)>
-65.116

> <W(SA)>
2.026

> <Valence>
2.822

> <Coulomb>
6.637

> <VdW>
0.785

> <VdW6>
-5.216

> <VdW12>
6.001

> <Bond>
0.080

> <Angle>
2.678

> <Pdih>
0.064

> <Idih>
0.000

> <Tether>
0.000

$$$$
VeraChem MOL file


 17 16  0  0  0  0  0  0  0  0999 V2000     
   20.0150   22.4569   21.4364 C   0  0  0  0  0  0  0  0  0  0  0  0
   19.4730   23.1137   20.5690 O   0  5  0  0  0  0  0  0  0  0  0  0
   20.8688   22.9126   22.1738 O   0  0  0  0  0  0  0  0  0  0  0  0
   19.5981   21.0361   21.5846 C   0  0  0  0  0  0  0  0  0  0  0  0
   18.8311   20.6922   20.8945 H   0  0  0  0  0  0  0  0  0  0  0  0
   20.1163   20.1905   22.5041 C   0  0  0  0  0  0  0  0  0  0  0  0
   20.8870   20.5240   23.1988 H   0  0  0  0  0  0  0  0  0  0  0  0
   19.6883   18.7463   22.6467 C   0  0  0  0  0  0  0  0  0  0  0  0
   18.6047   18.6584   22.4890 H   0  0  0  0  0  0  0  0  0  0  0  0
   19.8837   18.4043   23.6720 H   0  0  0  0  0  0  0  0  0  0  0  0
   20.4350   17.8379   21.6486 C   0  0  0  0  0  0  0  0  0  0  0  0
   20.2372   18.1761   20.6219 H   0  0  0  0  0  0  0  0  0  0  0  0
   21.5184   17.9260   21.8096 H   0  0  0  0  0  0  0  0  0  0  0  0
   20.0112   16.3625   21.7939 C   0  0  0  0  0  0  0  0  0  0  0  0
   20.2277   15.9890   22.8035 H   0  0  0  0  0  0  0  0  0  0  0  0
   18.9360   16.2423   21.6070 H   0  0  0  0  0  0  0  0  0  0  0  0
   20.5524   15.7321   21.0763 H   0  0  0  0  0  0  0  0  0  0  0  0
  1  2  1  0  0  0  0
  1  3  2  0  0  0  0
  1  4  1  0  0  0  0
  4  5  1  0  0  0  0
  4  6  2  0  0  0  0
  6  7  1  0  0  0  0
  6  8  1  0  0  0  0
  8  9  1  0  0  0  0
  8 10  1  0  0  0  0
  8 11  1  0  0  0  0
 11 12  1  0  0  0  0
 11 13  1  0  0  0  0
 11 14  1  0  0  0  0
 14 15  1  0  0  0  0
 14 16  1  0  0  0  0
 14 17  1  0  0  0  0
M  END
> <VConfSearch Rank>
341

> <Conf_Id>
36

> <Delta U+W>
0.000

> <U+W>
-53.409

> <U>
9.048

> <W>
-62.457

> <W(PB)>
-64.540

> <W(SA)>
2.084

> <Valence>
2.652

> <Coulomb>
5.578

> <VdW>
0.818

> <VdW6>
-4.534

> <VdW12>
5.352

> <Bond>
0.063

> <Angle>
2.579

> <Pdih>
0.010

> <Idih>
0.000

> <Tether>
0.000

$$$$
VeraChem MOL file


 17 16  0  0  0  0  0  0  0  0999 V2000     
   17.9103   18.4450   19.3580 C   0  0  0  0  0  0  0  0  0  0  0  0
   17.6937   19.5053   18.8019 O   0  5  0  0  0  0  0  0  0  0  0  0
   17.2819   17.4328   19.1167 O   0  0  0  0  0  0  0  0  0  0  0  0
   18.9875   18.3581   20.3809 C   0  0  0  0  0  0  0  0  0  0  0  0
   19.1291   17.3821   20.8392 H   0  0  0  0  0  0  0  0  0  0  0  0
   19.7634   19.4029   20.7489 C   0  0  0  0  0  0  0  0  0  0  0  0
   19.6286   20.3858   20.2977 H   0  0  0  0  0  0  0  0  0  0  0  0
   20.8556   19.3065   21.7915 C   0  0  0  0  0  0  0  0  0  0  0  0
   21.6049   20.0895   21.6128 H   0  0  0  0  0  0  0  0  0  0  0  0
   21.3797   18.3455   21.6987 H   0  0  0  0  0  0  0  0  0  0  0  0
   20.2860   19.4532   23.2174 C   0  0  0  0  0  0  0  0  0  0  0  0
   19.7642   20.4160   23.3084 H   0  0  0  0  0  0  0  0  0  0  0  0
   19.5391   18.6679   23.3993 H   0  0  0  0  0  0  0  0  0  0  0  0
   21.3944   19.3653   24.2856 C   0  0  0  0  0  0  0  0  0  0  0  0
   22.1389   20.1600   24.1458 H   0  0  0  0  0  0  0  0  0  0  0  0
   20.9703   19.4717   25.2926 H   0  0  0  0  0  0  0  0  0  0  0  0
   21.9118   18.3982   24.2363 H   0  0  0  0  0  0  0  0  0  0  0  0
  1  2  1  0  0  0  0
  1  3  2  0  0  0  0
  1  4  1  0  0  0  0
  4  5  1  0  0  0  0
  4  6  2  0  0  0  0
  6  7  1  0  0  0  0
  6  8  1  0  0  0  0
  8  9  1  0  0  0  0
  8 10  1  0  0  0  0
  8 11  1  0  0  0  0
 11 12  1  0  0  0  0
 11 13  1  0  0  0  0
 11 14  1  0  0  0  0
 14 15  1  0  0  0  0
 14 16  1  0  0  0  0
 14 17  1  0  0  0  0
M  END
> <VConfSearch Rank>
342

> <Conf_Id>
1

> <Delta U+W>
0.030

> <U+W>
-53.378

> <U>
9.048

> <W>
-62.426

> <W(PB)>
-64.506

> <W(SA)>
2.080

> <Valence>
2.652

> <Coulomb>
5.578

> <VdW>
0.818

> <VdW6>
-4.535

> <VdW12>
5.352

> <Bond>
0.063

> <Angle>
2.579

> <Pdih>
0.010

> <Idih>
0.000

> <Tether>
0.000

$$$$
VeraChem MOL file


 17 16  0  0  0  0  0  0  0  0999 V2000     
   17.2504   20.1393   21.1883 C   0  0  0  0  0  0  0  0  0  0  0  0
   16.6983   20.2155   22.2699 O   0  5  0  0  0  0  0  0  0  0  0  0
   16.8224   20.6836   20.1892 O   0  0  0  0  0  0  0  0  0  0  0  0
   18.5037   19.3481   21.0566 C   0  0  0  0  0  0  0  0  0  0  0  0
   18.9453   19.3201   20.0631 H   0  0  0  0  0  0  0  0  0  0  0  0
   19.0925   18.6926   22.0826 C   0  0  0  0  0  0  0  0  0  0  0  0
   18.6605   18.7168   23.0828 H   0  0  0  0  0  0  0  0  0  0  0  0
   20.3703   17.8924   21.9418 C   0  0  0  0  0  0  0  0  0  0  0  0
   20.3500   17.3288   20.9993 H   0  0  0  0  0  0  0  0  0  0  0  0
   20.4326   17.1450   22.7442 H   0  0  0  0  0  0  0  0  0  0  0  0
   21.6295   18.7864   21.9700 C   0  0  0  0  0  0  0  0  0  0  0  0
   22.5133   18.1687   21.7589 H   0  0  0  0  0  0  0  0  0  0  0  0
   21.5707   19.5346   21.1673 H   0  0  0  0  0  0  0  0  0  0  0  0
   21.8217   19.4948   23.3279 C   0  0  0  0  0  0  0  0  0  0  0  0
   21.8959   18.7649   24.1445 H   0  0  0  0  0  0  0  0  0  0  0  0
   22.7417   20.0936   23.3240 H   0  0  0  0  0  0  0  0  0  0  0  0
   20.9827   20.1686   23.5454 H   0  0  0  0  0  0  0  0  0  0  0  0
  1  2  1  0  0  0  0
  1  3  2  0  0  0  0
  1  4  1  0  0  0  0
  4  5  1  0  0  0  0
  4  6  2  0  0  0  0
  6  7  1  0  0  0  0
  6  8  1  0  0  0  0
  8  9  1  0  0  0  0
  8 10  1  0  0  0  0
  8 11  1  0  0  0  0
 11 12  1  0  0  0  0
 11 13  1  0  0  0  0
 11 14  1  0  0  0  0
 14 15  1  0  0  0  0
 14 16  1  0  0  0  0
 14 17  1  0  0  0  0
M  END
> <VConfSearch Rank>
343

> <Conf_Id>
3

> <Delta U+W>
0.531

> <U+W>
-52.878

> <U>
10.067

> <W>
-62.945

> <W(PB)>
-64.982

> <W(SA)>
2.037

> <Valence>
2.779

> <Coulomb>
6.474

> <VdW>
0.815

> <VdW6>
-5.088

> <VdW12>
5.902

> <Bond>
0.078

> <Angle>
2.651

> <Pdih>
0.050

> <Idih>
0.000

> <Tether>
0.000

$$$$
VeraChem MOL file


 17 16  0  0  0  0  0  0  0  0999 V2000     
   18.9025   16.2832   21.8976 C   0  0  0  0  0  0  0  0  0  0  0  0
   17.8937   15.8069   22.3807 O   0  5  0  0  0  0  0  0  0  0  0  0
   19.8491   15.6053   21.5444 O   0  0  0  0  0  0  0  0  0  0  0  0
   18.9566   17.7617   21.7387 C   0  0  0  0  0  0  0  0  0  0  0  0
   18.0775   18.3069   22.0743 H   0  0  0  0  0  0  0  0  0  0  0  0
   20.0146   18.4255   21.2195 C   0  0  0  0  0  0  0  0  0  0  0  0
   20.9009   17.8874   20.8842 H   0  0  0  0  0  0  0  0  0  0  0  0
   20.0679   19.9310   21.0616 C   0  0  0  0  0  0  0  0  0  0  0  0
   19.0596   20.3623   21.1262 H   0  0  0  0  0  0  0  0  0  0  0  0
   20.4396   20.1730   20.0569 H   0  0  0  0  0  0  0  0  0  0  0  0
   20.9857   20.5982   22.1093 C   0  0  0  0  0  0  0  0  0  0  0  0
   21.9938   20.1655   22.0471 H   0  0  0  0  0  0  0  0  0  0  0  0
   21.0870   21.6656   21.8692 H   0  0  0  0  0  0  0  0  0  0  0  0
   20.4460   20.4555   23.5484 C   0  0  0  0  0  0  0  0  0  0  0  0
   20.3915   19.4009   23.8483 H   0  0  0  0  0  0  0  0  0  0  0  0
   21.1017   20.9740   24.2598 H   0  0  0  0  0  0  0  0  0  0  0  0
   19.4411   20.8887   23.6356 H   0  0  0  0  0  0  0  0  0  0  0  0
  1  2  1  0  0  0  0
  1  3  2  0  0  0  0
  1  4  1  0  0  0  0
  4  5  1  0  0  0  0
  4  6  2  0  0  0  0
  6  7  1  0  0  0  0
  6  8  1  0  0  0  0
  8  9  1  0  0  0  0
  8 10  1  0  0  0  0
  8 11  1  0  0  0  0
 11 12  1  0  0  0  0
 11 13  1  0  0  0  0
 11 14  1  0  0  0  0
 14 15  1  0  0  0  0
 14 16  1  0  0  0  0
 14 17  1  0  0  0  0
M  END
> <VConfSearch Rank>
344

> <Conf_Id>
45

> <Delta U+W>
0.562

> <U+W>
-52.846

> <U>
10.243

> <W>
-63.089

> <W(PB)>
-65.116

> <W(SA)>
2.026

> <Valence>
2.822

> <Coulomb>
6.637

> <VdW>
0.785

> <VdW6>
-5.216

> <VdW12>
6.001

> <Bond>
0.080

> <Angle>
2.678

> <Pdih>
0.064

> <Idih>
0.000

> <Tether>
0.000

$$$$
VeraChem MOL file


 17 16  0  0  0  0  0  0  0  0999 V2000     
   21.3315   22.0442   22.9247 C   0  0  0  0  0  0  0  0  0  0  0  0
   20.7868   23.1138   23.1168 O   0  5  0  0  0  0  0  0  0  0  0  0
   22.5401   21.9211   22.8567 O   0  0  0  0  0  0  0  0  0  0  0  0
   20.4611   20.8472   22.7705 C   0  0  0  0  0  0  0  0  0  0  0  0
   19.3907   21.0263   22.8420 H   0  0  0  0  0  0  0  0  0  0  0  0
   20.9298   19.5976   22.5517 C   0  0  0  0  0  0  0  0  0  0  0  0
   22.0002   19.4072   22.4761 H   0  0  0  0  0  0  0  0  0  0  0  0
   20.0376   18.3858   22.3939 C   0  0  0  0  0  0  0  0  0  0  0  0
   19.1885   18.4517   23.0878 H   0  0  0  0  0  0  0  0  0  0  0  0
   20.5954   17.4802   22.6678 H   0  0  0  0  0  0  0  0  0  0  0  0
   19.5188   18.2547   20.9473 C   0  0  0  0  0  0  0  0  0  0  0  0
   18.9568   19.1583   20.6731 H   0  0  0  0  0  0  0  0  0  0  0  0
   20.3698   18.1869   20.2554 H   0  0  0  0  0  0  0  0  0  0  0  0
   18.6160   17.0165   20.7758 C   0  0  0  0  0  0  0  0  0  0  0  0
   19.1636   16.0950   21.0133 H   0  0  0  0  0  0  0  0  0  0  0  0
   17.7401   17.0746   21.4352 H   0  0  0  0  0  0  0  0  0  0  0  0
   18.2568   16.9400   19.7413 H   0  0  0  0  0  0  0  0  0  0  0  0
  1  2  1  0  0  0  0
  1  3  2  0  0  0  0
  1  4  1  0  0  0  0
  4  5  1  0  0  0  0
  4  6  2  0  0  0  0
  6  7  1  0  0  0  0
  6  8  1  0  0  0  0
  8  9  1  0  0  0  0
  8 10  1  0  0  0  0
  8 11  1  0  0  0  0
 11 12  1  0  0  0  0
 11 13  1  0  0  0  0
 11 14  1  0  0  0  0
 14 15  1  0  0  0  0
 14 16  1  0  0  0  0
 14 17  1  0  0  0  0
M  END
> <VConfSearch Rank>
345

> <Conf_Id>
36

> <Delta U+W>
0.000

> <U+W>
-53.409

> <U>
9.048

> <W>
-62.457

> <W(PB)>
-64.540

> <W(SA)>
2.084

> <Valence>
2.652

> <Coulomb>
5.578

> <VdW>
0.818

> <VdW6>
-4.534

> <VdW12>
5.352

> <Bond>
0.063

> <Angle>
2.579

> <Pdih>
0.010

> <Idih>
0.000

> <Tether>
0.000

$$$$
VeraChem MOL file


 17 16  0  0  0  0  0  0  0  0999 V2000     
   22.8048   19.4954   20.0622 C   0  0  0  0  0  0  0  0  0  0  0  0
   23.6566   18.7744   20.5472 O   0  5  0  0  0  0  0  0  0  0  0  0
   23.0518   20.3308   19.2144 O   0  0  0  0  0  0  0  0  0  0  0  0
   21.3914   19.3666   20.5094 C   0  0  0  0  0  0  0  0  0  0  0  0
   20.6807   20.0404   20.0363 H   0  0  0  0  0  0  0  0  0  0  0  0
   20.9741   18.4826   21.4440 C   0  0  0  0  0  0  0  0  0  0  0  0
   21.6781   17.8044   21.9259 H   0  0  0  0  0  0  0  0  0  0  0  0
   19.5350   18.3593   21.8944 C   0  0  0  0  0  0  0  0  0  0  0  0
   19.3575   17.3487   22.2861 H   0  0  0  0  0  0  0  0  0  0  0  0
   18.8608   18.4848   21.0362 H   0  0  0  0  0  0  0  0  0  0  0  0
   19.1949   19.4007   22.9802 C   0  0  0  0  0  0  0  0  0  0  0  0
   19.8691   19.2719   23.8383 H   0  0  0  0  0  0  0  0  0  0  0  0
   19.3680   20.4127   22.5885 H   0  0  0  0  0  0  0  0  0  0  0  0
   17.7320   19.2756   23.4514 C   0  0  0  0  0  0  0  0  0  0  0  0
   17.5400   18.2821   23.8773 H   0  0  0  0  0  0  0  0  0  0  0  0
   17.5090   20.0239   24.2230 H   0  0  0  0  0  0  0  0  0  0  0  0
   17.0358   19.4315   22.6169 H   0  0  0  0  0  0  0  0  0  0  0  0
  1  2  1  0  0  0  0
  1  3  2  0  0  0  0
  1  4  1  0  0  0  0
  4  5  1  0  0  0  0
  4  6  2  0  0  0  0
  6  7  1  0  0  0  0
  6  8  1  0  0  0  0
  8  9  1  0  0  0  0
  8 10  1  0  0  0  0
  8 11  1  0  0  0  0
 11 12  1  0  0  0  0
 11 13  1  0  0  0  0
 11 14  1  0  0  0  0
 14 15  1  0  0  0  0
 14 16  1  0  0  0  0
 14 17  1  0  0  0  0
M  END
> <VConfSearch Rank>
346

> <Conf_Id>
1

> <Delta U+W>
0.030

> <U+W>
-53.378

> <U>
9.048

> <W>
-62.426

> <W(PB)>
-64.506

> <W(SA)>
2.080

> <Valence>
2.652

> <Coulomb>
5.578

> <VdW>
0.818

> <VdW6>
-4.535

> <VdW12>
5.352

> <Bond>
0.063

> <Angle>
2.579

> <Pdih>
0.010

> <Idih>
0.000

> <Tether>
0.000

$$$$
VeraChem MOL file


 17 16  0  0  0  0  0  0  0  0999 V2000     
   19.7309   21.5149   23.9286 C   0  0  0  0  0  0  0  0  0  0  0  0
   20.4128   21.1473   24.8668 O   0  5  0  0  0  0  0  0  0  0  0  0
   19.3862   22.6707   23.7763 O   0  0  0  0  0  0  0  0  0  0  0  0
   19.2838   20.5247   22.9119 C   0  0  0  0  0  0  0  0  0  0  0  0
   18.6766   20.9189   22.1003 H   0  0  0  0  0  0  0  0  0  0  0  0
   19.5931   19.2089   22.9544 C   0  0  0  0  0  0  0  0  0  0  0  0
   20.2036   18.8040   23.7612 H   0  0  0  0  0  0  0  0  0  0  0  0
   19.1377   18.2076   21.9138 C   0  0  0  0  0  0  0  0  0  0  0  0
   18.0969   18.4170   21.6319 H   0  0  0  0  0  0  0  0  0  0  0  0
   19.1412   17.1964   22.3425 H   0  0  0  0  0  0  0  0  0  0  0  0
   20.0204   18.2342   20.6467 C   0  0  0  0  0  0  0  0  0  0  0  0
   19.5830   17.5684   19.8901 H   0  0  0  0  0  0  0  0  0  0  0  0
   20.0179   19.2446   20.2146 H   0  0  0  0  0  0  0  0  0  0  0  0
   21.4726   17.7929   20.9281 C   0  0  0  0  0  0  0  0  0  0  0  0
   21.5003   16.7795   21.3493 H   0  0  0  0  0  0  0  0  0  0  0  0
   22.0618   17.7913   20.0020 H   0  0  0  0  0  0  0  0  0  0  0  0
   21.9627   18.4725   21.6374 H   0  0  0  0  0  0  0  0  0  0  0  0
  1  2  1  0  0  0  0
  1  3  2  0  0  0  0
  1  4  1  0  0  0  0
  4  5  1  0  0  0  0
  4  6  2  0  0  0  0
  6  7  1  0  0  0  0
  6  8  1  0  0  0  0
  8  9  1  0  0  0  0
  8 10  1  0  0  0  0
  8 11  1  0  0  0  0
 11 12  1  0  0  0  0
 11 13  1  0  0  0  0
 11 14  1  0  0  0  0
 14 15  1  0  0  0  0
 14 16  1  0  0  0  0
 14 17  1  0  0  0  0
M  END
> <VConfSearch Rank>
347

> <Conf_Id>
3

> <Delta U+W>
0.531

> <U+W>
-52.878

> <U>
10.067

> <W>
-62.945

> <W(PB)>
-64.982

> <W(SA)>
2.037

> <Valence>
2.779

> <Coulomb>
6.474

> <VdW>
0.815

> <VdW6>
-5.088

> <VdW12>
5.902

> <Bond>
0.078

> <Angle>
2.651

> <Pdih>
0.050

> <Idih>
0.000

> <Tether>
0.000

$$$$
VeraChem MOL file


 17 16  0  0  0  0  0  0  0  0999 V2000     
   20.1586   20.9529   24.4536 C   0  0  0  0  0  0  0  0  0  0  0  0
   19.2700   21.4497   25.1180 O   0  5  0  0  0  0  0  0  0  0  0  0
   21.2872   21.4060   24.4159 O   0  0  0  0  0  0  0  0  0  0  0  0
   19.8277   19.7364   23.6631 C   0  0  0  0  0  0  0  0  0  0  0  0
   18.8017   19.3846   23.7420 H   0  0  0  0  0  0  0  0  0  0  0  0
   20.7153   19.0824   22.8796 C   0  0  0  0  0  0  0  0  0  0  0  0
   21.7443   19.4303   22.7920 H   0  0  0  0  0  0  0  0  0  0  0  0
   20.3747   17.8458   22.0739 C   0  0  0  0  0  0  0  0  0  0  0  0
   19.4452   17.3895   22.4406 H   0  0  0  0  0  0  0  0  0  0  0  0
   21.1621   17.0945   22.2204 H   0  0  0  0  0  0  0  0  0  0  0  0
   20.2446   18.1470   20.5647 C   0  0  0  0  0  0  0  0  0  0  0  0
   21.1731   18.6059   20.1975 H   0  0  0  0  0  0  0  0  0  0  0  0
   20.1253   17.2007   20.0193 H   0  0  0  0  0  0  0  0  0  0  0  0
   19.0472   19.0668   20.2437 C   0  0  0  0  0  0  0  0  0  0  0  0
   19.1628   20.0487   20.7208 H   0  0  0  0  0  0  0  0  0  0  0  0
   18.9627   19.2269   19.1611 H   0  0  0  0  0  0  0  0  0  0  0  0
   18.1065   18.6237   20.5955 H   0  0  0  0  0  0  0  0  0  0  0  0
  1  2  1  0  0  0  0
  1  3  2  0  0  0  0
  1  4  1  0  0  0  0
  4  5  1  0  0  0  0
  4  6  2  0  0  0  0
  6  7  1  0  0  0  0
  6  8  1  0  0  0  0
  8  9  1  0  0  0  0
  8 10  1  0  0  0  0
  8 11  1  0  0  0  0
 11 12  1  0  0  0  0
 11 13  1  0  0  0  0
 11 14  1  0  0  0  0
 14 15  1  0  0  0  0
 14 16  1  0  0  0  0
 14 17  1  0  0  0  0
M  END
> <VConfSearch Rank>
348

> <Conf_Id>
45

> <Delta U+W>
0.562

> <U+W>
-52.846

> <U>
10.243

> <W>
-63.089

> <W(PB)>
-65.116

> <W(SA)>
2.026

> <Valence>
2.822

> <Coulomb>
6.637

> <VdW>
0.785

> <VdW6>
-5.216

> <VdW12>
6.001

> <Bond>
0.080

> <Angle>
2.678

> <Pdih>
0.064

> <Idih>
0.000

> <Tether>
0.000

$$$$
VeraChem MOL file


 17 16  0  0  0  0  0  0  0  0999 V2000     
   21.6786   18.8280   19.0060 C   0  0  0  0  0  0  0  0  0  0  0  0
   22.7599   19.2878   18.6944 O   0  5  0  0  0  0  0  0  0  0  0  0
   20.9056   18.3506   18.1967 O   0  0  0  0  0  0  0  0  0  0  0  0
   21.3071   18.8603   20.4466 C   0  0  0  0  0  0  0  0  0  0  0  0
   22.0424   19.3001   21.1166 H   0  0  0  0  0  0  0  0  0  0  0  0
   20.1382   18.3862   20.9344 C   0  0  0  0  0  0  0  0  0  0  0  0
   19.3934   17.9457   20.2717 H   0  0  0  0  0  0  0  0  0  0  0  0
   19.7672   18.4249   22.4007 C   0  0  0  0  0  0  0  0  0  0  0  0
   20.6513   18.2132   23.0175 H   0  0  0  0  0  0  0  0  0  0  0  0
   19.0384   17.6321   22.6167 H   0  0  0  0  0  0  0  0  0  0  0  0
   19.1734   19.7930   22.7941 C   0  0  0  0  0  0  0  0  0  0  0  0
   19.9031   20.5870   22.5825 H   0  0  0  0  0  0  0  0  0  0  0  0
   18.2882   20.0015   22.1773 H   0  0  0  0  0  0  0  0  0  0  0  0
   18.7839   19.8375   24.2853 C   0  0  0  0  0  0  0  0  0  0  0  0
   18.0306   19.0733   24.5177 H   0  0  0  0  0  0  0  0  0  0  0  0
   19.6587   19.6625   24.9253 H   0  0  0  0  0  0  0  0  0  0  0  0
   18.3638   20.8176   24.5463 H   0  0  0  0  0  0  0  0  0  0  0  0
  1  2  1  0  0  0  0
  1  3  2  0  0  0  0
  1  4  1  0  0  0  0
  4  5  1  0  0  0  0
  4  6  2  0  0  0  0
  6  7  1  0  0  0  0
  6  8  1  0  0  0  0
  8  9  1  0  0  0  0
  8 10  1  0  0  0  0
  8 11  1  0  0  0  0
 11 12  1  0  0  0  0
 11 13  1  0  0  0  0
 11 14  1  0  0  0  0
 14 15  1  0  0  0  0
 14 16  1  0  0  0  0
 14 17  1  0  0  0  0
M  END
> <VConfSearch Rank>
349

> <Conf_Id>
36

> <Delta U+W>
0.000

> <U+W>
-53.409

> <U>
9.048

> <W>
-62.457

> <W(PB)>
-64.540

> <W(SA)>
2.084

> <Valence>
2.652

> <Coulomb>
5.578

> <VdW>
0.818

> <VdW6>
-4.534

> <VdW12>
5.352

> <Bond>
0.063

> <Angle>
2.579

> <Pdih>
0.010

> <Idih>
0.000

> <Tether>
0.000

$$$$
VeraChem MOL file


 17 16  0  0  0  0  0  0  0  0999 V2000     
   20.7742   20.9742   24.6084 C   0  0  0  0  0  0  0  0  0  0  0  0
   20.1836   20.4889   25.5550 O   0  5  0  0  0  0  0  0  0  0  0  0
   21.3316   22.0532   24.6610 O   0  0  0  0  0  0  0  0  0  0  0  0
   20.8318   20.2326   23.3196 C   0  0  0  0  0  0  0  0  0  0  0  0
   21.3751   20.7219   22.5144 H   0  0  0  0  0  0  0  0  0  0  0  0
   20.2568   19.0252   23.1185 C   0  0  0  0  0  0  0  0  0  0  0  0
   19.7083   18.5270   23.9177 H   0  0  0  0  0  0  0  0  0  0  0  0
   20.3185   18.2785   21.8040 C   0  0  0  0  0  0  0  0  0  0  0  0
   20.1953   17.2024   21.9861 H   0  0  0  0  0  0  0  0  0  0  0  0
   21.3086   18.4065   21.3455 H   0  0  0  0  0  0  0  0  0  0  0  0
   19.2267   18.7654   20.8294 C   0  0  0  0  0  0  0  0  0  0  0  0
   18.2373   18.6343   21.2893 H   0  0  0  0  0  0  0  0  0  0  0  0
   19.3510   19.8411   20.6429 H   0  0  0  0  0  0  0  0  0  0  0  0
   19.2770   18.0026   19.4902 C   0  0  0  0  0  0  0  0  0  0  0  0
   19.1234   16.9265   19.6449 H   0  0  0  0  0  0  0  0  0  0  0  0
   18.4935   18.3624   18.8106 H   0  0  0  0  0  0  0  0  0  0  0  0
   20.2464   18.1430   18.9944 H   0  0  0  0  0  0  0  0  0  0  0  0
  1  2  1  0  0  0  0
  1  3  2  0  0  0  0
  1  4  1  0  0  0  0
  4  5  1  0  0  0  0
  4  6  2  0  0  0  0
  6  7  1  0  0  0  0
  6  8  1  0  0  0  0
  8  9  1  0  0  0  0
  8 10  1  0  0  0  0
  8 11  1  0  0  0  0
 11 12  1  0  0  0  0
 11 13  1  0  0  0  0
 11 14  1  0  0  0  0
 14 15  1  0  0  0  0
 14 16  1  0  0  0  0
 14 17  1  0  0  0  0
M  END
> <VConfSearch Rank>
350

> <Conf_Id>
1

> <Delta U+W>
0.030

> <U+W>
-53.378

> <U>
9.048

> <W>
-62.426

> <W(PB)>
-64.506

> <W(SA)>
2.080

> <Valence>
2.652

> <Coulomb>
5.578

> <VdW>
0.818

> <VdW6>
-4.535

> <VdW12>
5.352

> <Bond>
0.063

> <Angle>
2.579

> <Pdih>
0.010

> <Idih>
0.000

> <Tether>
0.000

$$$$
VeraChem MOL file


 17 16  0  0  0  0  0  0  0  0999 V2000     
   21.2507   16.2656   22.1594 C   0  0  0  0  0  0  0  0  0  0  0  0
   20.3253   15.6050   21.7262 O   0  5  0  0  0  0  0  0  0  0  0  0
   22.3856   15.8376   22.2411 O   0  0  0  0  0  0  0  0  0  0  0  0
   21.0073   17.6598   22.6187 C   0  0  0  0  0  0  0  0  0  0  0  0
   21.8765   18.1942   22.9952 H   0  0  0  0  0  0  0  0  0  0  0  0
   19.7980   18.2643   22.5844 C   0  0  0  0  0  0  0  0  0  0  0  0
   18.9211   17.7393   22.2060 H   0  0  0  0  0  0  0  0  0  0  0  0
   19.5586   19.6852   23.0501 C   0  0  0  0  0  0  0  0  0  0  0  0
   20.1304   19.8729   23.9690 H   0  0  0  0  0  0  0  0  0  0  0  0
   18.5010   19.8175   23.3152 H   0  0  0  0  0  0  0  0  0  0  0  0
   19.9580   20.7283   21.9834 C   0  0  0  0  0  0  0  0  0  0  0  0
   19.8631   21.7353   22.4125 H   0  0  0  0  0  0  0  0  0  0  0  0
   21.0162   20.5992   21.7169 H   0  0  0  0  0  0  0  0  0  0  0  0
   19.0870   20.6376   20.7122 C   0  0  0  0  0  0  0  0  0  0  0  0
   18.0250   20.7765   20.9530 H   0  0  0  0  0  0  0  0  0  0  0  0
   19.3752   21.4131   19.9908 H   0  0  0  0  0  0  0  0  0  0  0  0
   19.2026   19.6623   20.2216 H   0  0  0  0  0  0  0  0  0  0  0  0
  1  2  1  0  0  0  0
  1  3  2  0  0  0  0
  1  4  1  0  0  0  0
  4  5  1  0  0  0  0
  4  6  2  0  0  0  0
  6  7  1  0  0  0  0
  6  8  1  0  0  0  0
  8  9  1  0  0  0  0
  8 10  1  0  0  0  0
  8 11  1  0  0  0  0
 11 12  1  0  0  0  0
 11 13  1  0  0  0  0
 11 14  1  0  0  0  0
 14 15  1  0  0  0  0
 14 16  1  0  0  0  0
 14 17  1  0  0  0  0
M  END
> <VConfSearch Rank>
351

> <Conf_Id>
3

> <Delta U+W>
0.531

> <U+W>
-52.878

> <U>
10.067

> <W>
-62.945

> <W(PB)>
-64.982

> <W(SA)>
2.037

> <Valence>
2.779

> <Coulomb>
6.474

> <VdW>
0.815

> <VdW6>
-5.088

> <VdW12>
5.902

> <Bond>
0.078

> <Angle>
2.651

> <Pdih>
0.050

> <Idih>
0.000

> <Tether>
0.000

$$$$
VeraChem MOL file


 17 16  0  0  0  0  0  0  0  0999 V2000     
   18.9565   16.3704   21.2838 C   0  0  0  0  0  0  0  0  0  0  0  0
   18.5528   15.4613   21.9826 O   0  5  0  0  0  0  0  0  0  0  0  0
   19.3539   16.2023   20.1461 O   0  0  0  0  0  0  0  0  0  0  0  0
   18.9516   17.7396   21.8663 C   0  0  0  0  0  0  0  0  0  0  0  0
   18.5839   17.8191   22.8867 H   0  0  0  0  0  0  0  0  0  0  0  0
   19.3738   18.8414   21.2050 C   0  0  0  0  0  0  0  0  0  0  0  0
   19.7471   18.7701   20.1836 H   0  0  0  0  0  0  0  0  0  0  0  0
   19.3702   20.2336   21.8017 C   0  0  0  0  0  0  0  0  0  0  0  0
   18.7157   20.2746   22.6830 H   0  0  0  0  0  0  0  0  0  0  0  0
   18.9440   20.9351   21.0721 H   0  0  0  0  0  0  0  0  0  0  0  0
   20.7880   20.7104   22.1857 C   0  0  0  0  0  0  0  0  0  0  0  0
   21.4441   20.6672   21.3053 H   0  0  0  0  0  0  0  0  0  0  0  0
   20.7412   21.7649   22.4907 H   0  0  0  0  0  0  0  0  0  0  0  0
   21.4027   19.8816   23.3338 C   0  0  0  0  0  0  0  0  0  0  0  0
   21.5254   18.8305   23.0420 H   0  0  0  0  0  0  0  0  0  0  0  0
   22.3917   20.2727   23.6057 H   0  0  0  0  0  0  0  0  0  0  0  0
   20.7665   19.9170   24.2277 H   0  0  0  0  0  0  0  0  0  0  0  0
  1  2  1  0  0  0  0
  1  3  2  0  0  0  0
  1  4  1  0  0  0  0
  4  5  1  0  0  0  0
  4  6  2  0  0  0  0
  6  7  1  0  0  0  0
  6  8  1  0  0  0  0
  8  9  1  0  0  0  0
  8 10  1  0  0  0  0
  8 11  1  0  0  0  0
 11 12  1  0  0  0  0
 11 13  1  0  0  0  0
 11 14  1  0  0  0  0
 14 15  1  0  0  0  0
 14 16  1  0  0  0  0
 14 17  1  0  0  0  0
M  END
> <VConfSearch Rank>
352

> <Conf_Id>
45

> <Delta U+W>
0.562

> <U+W>
-52.846

> <U>
10.243

> <W>
-63.089

> <W(PB)>
-65.116

> <W(SA)>
2.026

> <Valence>
2.822

> <Coulomb>
6.637

> <VdW>
0.785

> <VdW6>
-5.216

> <VdW12>
6.001

> <Bond>
0.080

> <Angle>
2.678

> <Pdih>
0.064

> <Idih>
0.000

> <Tether>
0.000

$$$$
VeraChem MOL file


 17 16  0  0  0  0  0  0  0  0999 V2000     
   17.0682   18.5310   20.3393 C   0  0  0  0  0  0  0  0  0  0  0  0
   15.9698   19.0050   20.5549 O   0  5  0  0  0  0  0  0  0  0  0  0
   17.2404   17.5605   19.6259 O   0  0  0  0  0  0  0  0  0  0  0  0
   18.2380   19.1844   20.9863 C   0  0  0  0  0  0  0  0  0  0  0  0
   18.0148   20.0464   21.6109 H   0  0  0  0  0  0  0  0  0  0  0  0
   19.5146   18.7639   20.8361 C   0  0  0  0  0  0  0  0  0  0  0  0
   19.7493   17.9000   20.2146 H   0  0  0  0  0  0  0  0  0  0  0  0
   20.6986   19.4329   21.4995 C   0  0  0  0  0  0  0  0  0  0  0  0
   20.5625   20.5229   21.4998 H   0  0  0  0  0  0  0  0  0  0  0  0
   21.6082   19.2318   20.9177 H   0  0  0  0  0  0  0  0  0  0  0  0
   20.8896   18.9317   22.9456 C   0  0  0  0  0  0  0  0  0  0  0  0
   19.9818   19.1359   23.5302 H   0  0  0  0  0  0  0  0  0  0  0  0
   21.0275   17.8415   22.9425 H   0  0  0  0  0  0  0  0  0  0  0  0
   22.1003   19.6019   23.6257 C   0  0  0  0  0  0  0  0  0  0  0  0
   23.0274   19.3867   23.0783 H   0  0  0  0  0  0  0  0  0  0  0  0
   21.9728   20.6915   23.6696 H   0  0  0  0  0  0  0  0  0  0  0  0
   22.2199   19.2332   24.6528 H   0  0  0  0  0  0  0  0  0  0  0  0
  1  2  1  0  0  0  0
  1  3  2  0  0  0  0
  1  4  1  0  0  0  0
  4  5  1  0  0  0  0
  4  6  2  0  0  0  0
  6  7  1  0  0  0  0
  6  8  1  0  0  0  0
  8  9  1  0  0  0  0
  8 10  1  0  0  0  0
  8 11  1  0  0  0  0
 11 12  1  0  0  0  0
 11 13  1  0  0  0  0
 11 14  1  0  0  0  0
 14 15  1  0  0  0  0
 14 16  1  0  0  0  0
 14 17  1  0  0  0  0
M  END
> <VConfSearch Rank>
353

> <Conf_Id>
36

> <Delta U+W>
0.000

> <U+W>
-53.409

> <U>
9.048

> <W>
-62.457

> <W(PB)>
-64.540

> <W(SA)>
2.084

> <Valence>
2.652

> <Coulomb>
5.578

> <VdW>
0.818

> <VdW6>
-4.534

> <VdW12>
5.352

> <Bond>
0.063

> <Angle>
2.579

> <Pdih>
0.010

> <Idih>
0.000

> <Tether>
0.000

$$$$
VeraChem MOL file


 17 16  0  0  0  0  0  0  0  0999 V2000     
   22.6817   20.0641   20.0919 C   0  0  0  0  0  0  0  0  0  0  0  0
   23.4125   20.6855   20.8403 O   0  5  0  0  0  0  0  0  0  0  0  0
   22.8437   20.0317   18.8875 O   0  0  0  0  0  0  0  0  0  0  0  0
   21.5334   19.3012   20.6518 C   0  0  0  0  0  0  0  0  0  0  0  0
   20.9202   18.7679   19.9290 H   0  0  0  0  0  0  0  0  0  0  0  0
   21.2338   19.2493   21.9696 C   0  0  0  0  0  0  0  0  0  0  0  0
   21.8402   19.7816   22.7023 H   0  0  0  0  0  0  0  0  0  0  0  0
   20.0629   18.4725   22.5307 C   0  0  0  0  0  0  0  0  0  0  0  0
   20.2639   18.2096   23.5781 H   0  0  0  0  0  0  0  0  0  0  0  0
   19.9461   17.5248   21.9876 H   0  0  0  0  0  0  0  0  0  0  0  0
   18.7556   19.2864   22.4447 C   0  0  0  0  0  0  0  0  0  0  0  0
   18.8742   20.2328   22.9905 H   0  0  0  0  0  0  0  0  0  0  0  0
   18.5508   19.5467   21.3969 H   0  0  0  0  0  0  0  0  0  0  0  0
   17.5588   18.5050   23.0232 C   0  0  0  0  0  0  0  0  0  0  0  0
   17.7240   18.2592   24.0804 H   0  0  0  0  0  0  0  0  0  0  0  0
   16.6386   19.0995   22.9533 H   0  0  0  0  0  0  0  0  0  0  0  0
   17.3992   17.5678   22.4741 H   0  0  0  0  0  0  0  0  0  0  0  0
  1  2  1  0  0  0  0
  1  3  2  0  0  0  0
  1  4  1  0  0  0  0
  4  5  1  0  0  0  0
  4  6  2  0  0  0  0
  6  7  1  0  0  0  0
  6  8  1  0  0  0  0
  8  9  1  0  0  0  0
  8 10  1  0  0  0  0
  8 11  1  0  0  0  0
 11 12  1  0  0  0  0
 11 13  1  0  0  0  0
 11 14  1  0  0  0  0
 14 15  1  0  0  0  0
 14 16  1  0  0  0  0
 14 17  1  0  0  0  0
M  END
> <VConfSearch Rank>
354

> <Conf_Id>
1

> <Delta U+W>
0.030

> <U+W>
-53.378

> <U>
9.048

> <W>
-62.426

> <W(PB)>
-64.506

> <W(SA)>
2.080

> <Valence>
2.652

> <Coulomb>
5.578

> <VdW>
0.818

> <VdW6>
-4.535

> <VdW12>
5.352

> <Bond>
0.063

> <Angle>
2.579

> <Pdih>
0.010

> <Idih>
0.000

> <Tether>
0.000

$$$$
VeraChem MOL file


 17 16  0  0  0  0  0  0  0  0999 V2000     
   18.1197   18.0411   24.2426 C   0  0  0  0  0  0  0  0  0  0  0  0
   17.0991   18.6364   23.9518 O   0  5  0  0  0  0  0  0  0  0  0  0
   18.1346   17.0847   24.9929 O   0  0  0  0  0  0  0  0  0  0  0  0
   19.4191   18.4862   23.6705 C   0  0  0  0  0  0  0  0  0  0  0  0
   20.2921   17.9117   23.9716 H   0  0  0  0  0  0  0  0  0  0  0  0
   19.5508   19.5319   22.8231 C   0  0  0  0  0  0  0  0  0  0  0  0
   18.6824   20.1123   22.5122 H   0  0  0  0  0  0  0  0  0  0  0  0
   20.8764   19.9768   22.2417 C   0  0  0  0  0  0  0  0  0  0  0  0
   21.6545   19.9226   23.0151 H   0  0  0  0  0  0  0  0  0  0  0  0
   20.8165   21.0314   21.9409 H   0  0  0  0  0  0  0  0  0  0  0  0
   21.3050   19.1182   21.0315 C   0  0  0  0  0  0  0  0  0  0  0  0
   22.3155   19.4160   20.7197 H   0  0  0  0  0  0  0  0  0  0  0  0
   21.3670   18.0624   21.3297 H   0  0  0  0  0  0  0  0  0  0  0  0
   20.3436   19.2642   19.8326 C   0  0  0  0  0  0  0  0  0  0  0  0
   20.2757   20.3110   19.5090 H   0  0  0  0  0  0  0  0  0  0  0  0
   20.6958   18.6682   18.9808 H   0  0  0  0  0  0  0  0  0  0  0  0
   19.3339   18.9187   20.0902 H   0  0  0  0  0  0  0  0  0  0  0  0
  1  2  1  0  0  0  0
  1  3  2  0  0  0  0
  1  4  1  0  0  0  0
  4  5  1  0  0  0  0
  4  6  2  0  0  0  0
  6  7  1  0  0  0  0
  6  8  1  0  0  0  0
  8  9  1  0  0  0  0
  8 10  1  0  0  0  0
  8 11  1  0  0  0  0
 11 12  1  0  0  0  0
 11 13  1  0  0  0  0
 11 14  1  0  0  0  0
 14 15  1  0  0  0  0
 14 16  1  0  0  0  0
 14 17  1  0  0  0  0
M  END
> <VConfSearch Rank>
355

> <Conf_Id>
3

> <Delta U+W>
0.531

> <U+W>
-52.878

> <U>
10.067

> <W>
-62.945

> <W(PB)>
-64.982

> <W(SA)>
2.037

> <Valence>
2.779

> <Coulomb>
6.474

> <VdW>
0.815

> <VdW6>
-5.088

> <VdW12>
5.902

> <Bond>
0.078

> <Angle>
2.651

> <Pdih>
0.050

> <Idih>
0.000

> <Tether>
0.000

$$$$
VeraChem MOL file


 17 16  0  0  0  0  0  0  0  0999 V2000     
   20.4804   22.0052   21.4270 C   0  0  0  0  0  0  0  0  0  0  0  0
   21.3671   22.7425   21.8118 O   0  5  0  0  0  0  0  0  0  0  0  0
   19.4256   22.4172   20.9820 O   0  0  0  0  0  0  0  0  0  0  0  0
   20.7206   20.5391   21.5112 C   0  0  0  0  0  0  0  0  0  0  0  0
   21.6835   20.2393   21.9182 H   0  0  0  0  0  0  0  0  0  0  0  0
   19.8232   19.6049   21.1221 C   0  0  0  0  0  0  0  0  0  0  0  0
   18.8547   19.8966   20.7166 H   0  0  0  0  0  0  0  0  0  0  0  0
   20.0695   18.1131   21.2116 C   0  0  0  0  0  0  0  0  0  0  0  0
   21.1415   17.9049   21.3308 H   0  0  0  0  0  0  0  0  0  0  0  0
   19.7708   17.6431   20.2650 H   0  0  0  0  0  0  0  0  0  0  0  0
   19.2819   17.4572   22.3668 C   0  0  0  0  0  0  0  0  0  0  0  0
   18.2097   17.6671   22.2497 H   0  0  0  0  0  0  0  0  0  0  0  0
   19.3966   16.3662   22.3048 H   0  0  0  0  0  0  0  0  0  0  0  0
   19.7570   17.9346   23.7558 C   0  0  0  0  0  0  0  0  0  0  0  0
   19.5978   19.0137   23.8796 H   0  0  0  0  0  0  0  0  0  0  0  0
   19.2031   17.4196   24.5513 H   0  0  0  0  0  0  0  0  0  0  0  0
   20.8257   17.7275   23.8977 H   0  0  0  0  0  0  0  0  0  0  0  0
  1  2  1  0  0  0  0
  1  3  2  0  0  0  0
  1  4  1  0  0  0  0
  4  5  1  0  0  0  0
  4  6  2  0  0  0  0
  6  7  1  0  0  0  0
  6  8  1  0  0  0  0
  8  9  1  0  0  0  0
  8 10  1  0  0  0  0
  8 11  1  0  0  0  0
 11 12  1  0  0  0  0
 11 13  1  0  0  0  0
 11 14  1  0  0  0  0
 14 15  1  0  0  0  0
 14 16  1  0  0  0  0
 14 17  1  0  0  0  0
M  END
> <VConfSearch Rank>
356

> <Conf_Id>
45

> <Delta U+W>
0.562

> <U+W>
-52.846

> <U>
10.243

> <W>
-63.089

> <W(PB)>
-65.116

> <W(SA)>
2.026

> <Valence>
2.822

> <Coulomb>
6.637

> <VdW>
0.785

> <VdW6>
-5.216

> <VdW12>
6.001

> <Bond>
0.080

> <Angle>
2.678

> <Pdih>
0.064

> <Idih>
0.000

> <Tether>
0.000

$$$$
VeraChem MOL file


 17 16  0  0  0  0  0  0  0  0999 V2000     
   22.2783   16.6906   21.3988 C   0  0  0  0  0  0  0  0  0  0  0  0
   23.3878   16.5640   21.8791 O   0  5  0  0  0  0  0  0  0  0  0  0
   21.8933   16.0407   20.4449 O   0  0  0  0  0  0  0  0  0  0  0  0
   21.3688   17.6894   22.0228 C   0  0  0  0  0  0  0  0  0  0  0  0
   21.7746   18.2359   22.8710 H   0  0  0  0  0  0  0  0  0  0  0  0
   20.1105   17.9353   21.5924 C   0  0  0  0  0  0  0  0  0  0  0  0
   19.6949   17.3951   20.7420 H   0  0  0  0  0  0  0  0  0  0  0  0
   19.1927   18.9544   22.2314 C   0  0  0  0  0  0  0  0  0  0  0  0
   19.3195   18.9421   23.3225 H   0  0  0  0  0  0  0  0  0  0  0  0
   18.1470   18.6818   22.0352 H   0  0  0  0  0  0  0  0  0  0  0  0
   19.4661   20.3732   21.6916 C   0  0  0  0  0  0  0  0  0  0  0  0
   20.5109   20.6493   21.8909 H   0  0  0  0  0  0  0  0  0  0  0  0
   19.3367   20.3835   20.6004 H   0  0  0  0  0  0  0  0  0  0  0  0
   18.5281   21.4167   22.3311 C   0  0  0  0  0  0  0  0  0  0  0  0
   17.4767   21.1817   22.1199 H   0  0  0  0  0  0  0  0  0  0  0  0
   18.6603   21.4483   23.4206 H   0  0  0  0  0  0  0  0  0  0  0  0
   18.7375   22.4190   21.9352 H   0  0  0  0  0  0  0  0  0  0  0  0
  1  2  1  0  0  0  0
  1  3  2  0  0  0  0
  1  4  1  0  0  0  0
  4  5  1  0  0  0  0
  4  6  2  0  0  0  0
  6  7  1  0  0  0  0
  6  8  1  0  0  0  0
  8  9  1  0  0  0  0
  8 10  1  0  0  0  0
  8 11  1  0  0  0  0
 11 12  1  0  0  0  0
 11 13  1  0  0  0  0
 11 14  1  0  0  0  0
 14 15  1  0  0  0  0
 14 16  1  0  0  0  0
 14 17  1  0  0  0  0
M  END
> <VConfSearch Rank>
357

> <Conf_Id>
36

> <Delta U+W>
0.000

> <U+W>
-53.409

> <U>
9.048

> <W>
-62.457

> <W(PB)>
-64.540

> <W(SA)>
2.084

> <Valence>
2.652

> <Coulomb>
5.578

> <VdW>
0.818

> <VdW6>
-4.534

> <VdW12>
5.352

> <Bond>
0.063

> <Angle>
2.579

> <Pdih>
0.010

> <Idih>
0.000

> <Tether>
0.000

$$$$
VeraChem MOL file


 17 16  0  0  0  0  0  0  0  0999 V2000     
   16.9440   19.9401   20.8025 C   0  0  0  0  0  0  0  0  0  0  0  0
   17.0070   19.9793   19.5880 O   0  5  0  0  0  0  0  0  0  0  0  0
   15.9864   20.3528   21.4274 O   0  0  0  0  0  0  0  0  0  0  0  0
   18.0756   19.3649   21.5788 C   0  0  0  0  0  0  0  0  0  0  0  0
   17.9555   19.3599   22.6598 H   0  0  0  0  0  0  0  0  0  0  0  0
   19.2017   18.8708   21.0160 C   0  0  0  0  0  0  0  0  0  0  0  0
   19.3334   18.8729   19.9341 H   0  0  0  0  0  0  0  0  0  0  0  0
   20.3488   18.2893   21.8130 C   0  0  0  0  0  0  0  0  0  0  0  0
   20.9101   17.5822   21.1874 H   0  0  0  0  0  0  0  0  0  0  0  0
   19.9608   17.7134   22.6643 H   0  0  0  0  0  0  0  0  0  0  0  0
   21.2972   19.3944   22.3211 C   0  0  0  0  0  0  0  0  0  0  0  0
   21.6857   19.9675   21.4678 H   0  0  0  0  0  0  0  0  0  0  0  0
   20.7380   20.1005   22.9506 H   0  0  0  0  0  0  0  0  0  0  0  0
   22.4744   18.8090   23.1268 C   0  0  0  0  0  0  0  0  0  0  0  0
   23.0698   18.1227   22.5103 H   0  0  0  0  0  0  0  0  0  0  0  0
   23.1376   19.6095   23.4796 H   0  0  0  0  0  0  0  0  0  0  0  0
   22.1136   18.2565   24.0043 H   0  0  0  0  0  0  0  0  0  0  0  0
  1  2  1  0  0  0  0
  1  3  2  0  0  0  0
  1  4  1  0  0  0  0
  4  5  1  0  0  0  0
  4  6  2  0  0  0  0
  6  7  1  0  0  0  0
  6  8  1  0  0  0  0
  8  9  1  0  0  0  0
  8 10  1  0  0  0  0
  8 11  1  0  0  0  0
 11 12  1  0  0  0  0
 11 13  1  0  0  0  0
 11 14  1  0  0  0  0
 14 15  1  0  0  0  0
 14 16  1  0  0  0  0
 14 17  1  0  0  0  0
M  END
> <VConfSearch Rank>
358

> <Conf_Id>
1

> <Delta U+W>
0.030

> <U+W>
-53.378

> <U>
9.048

> <W>
-62.426

> <W(PB)>
-64.506

> <W(SA)>
2.080

> <Valence>
2.652

> <Coulomb>
5.578

> <VdW>
0.818

> <VdW6>
-4.535

> <VdW12>
5.352

> <Bond>
0.063

> <Angle>
2.579

> <Pdih>
0.010

> <Idih>
0.000

> <Tether>
0.000

$$$$
VeraChem MOL file


 17 16  0  0  0  0  0  0  0  0999 V2000     
   21.0191   21.4349   23.7785 C   0  0  0  0  0  0  0  0  0  0  0  0
   22.1638   21.5293   23.3769 O   0  5  0  0  0  0  0  0  0  0  0  0
   20.4728   22.3072   24.4254 O   0  0  0  0  0  0  0  0  0  0  0  0
   20.2341   20.2065   23.4805 C   0  0  0  0  0  0  0  0  0  0  0  0
   19.2186   20.1861   23.8691 H   0  0  0  0  0  0  0  0  0  0  0  0
   20.7136   19.1592   22.7717 C   0  0  0  0  0  0  0  0  0  0  0  0
   21.7285   19.1705   22.3748 H   0  0  0  0  0  0  0  0  0  0  0  0
   19.9074   17.9137   22.4690 C   0  0  0  0  0  0  0  0  0  0  0  0
   19.3231   17.6289   23.3545 H   0  0  0  0  0  0  0  0  0  0  0  0
   20.5833   17.0724   22.2647 H   0  0  0  0  0  0  0  0  0  0  0  0
   18.9504   18.1094   21.2726 C   0  0  0  0  0  0  0  0  0  0  0  0
   18.3201   17.2157   21.1668 H   0  0  0  0  0  0  0  0  0  0  0  0
   18.2719   18.9498   21.4746 H   0  0  0  0  0  0  0  0  0  0  0  0
   19.7028   18.3557   19.9475 C   0  0  0  0  0  0  0  0  0  0  0  0
   20.3785   17.5214   19.7186 H   0  0  0  0  0  0  0  0  0  0  0  0
   18.9948   18.4568   19.1148 H   0  0  0  0  0  0  0  0  0  0  0  0
   20.2989   19.2764   19.9957 H   0  0  0  0  0  0  0  0  0  0  0  0
  1  2  1  0  0  0  0
  1  3  2  0  0  0  0
  1  4  1  0  0  0  0
  4  5  1  0  0  0  0
  4  6  2  0  0  0  0
  6  7  1  0  0  0  0
  6  8  1  0  0  0  0
  8  9  1  0  0  0  0
  8 10  1  0  0  0  0
  8 11  1  0  0  0  0
 11 12  1  0  0  0  0
 11 13  1  0  0  0  0
 11 14  1  0  0  0  0
 14 15  1  0  0  0  0
 14 16  1  0  0  0  0
 14 17  1  0  0  0  0
M  END
> <VConfSearch Rank>
359

> <Conf_Id>
3

> <Delta U+W>
0.531

> <U+W>
-52.878

> <U>
10.067

> <W>
-62.945

> <W(PB)>
-64.982

> <W(SA)>
2.037

> <Valence>
2.779

> <Coulomb>
6.474

> <VdW>
0.815

> <VdW6>
-5.088

> <VdW12>
5.902

> <Bond>
0.078

> <Angle>
2.651

> <Pdih>
0.050

> <Idih>
0.000

> <Tether>
0.000

$$$$
VeraChem MOL file


 17 16  0  0  0  0  0  0  0  0999 V2000     
   19.2948   16.3030   21.1644 C   0  0  0  0  0  0  0  0  0  0  0  0
   18.3786   15.5795   21.5034 O   0  5  0  0  0  0  0  0  0  0  0  0
   20.3129   15.8814   20.6485 O   0  0  0  0  0  0  0  0  0  0  0  0
   19.1394   17.7643   21.3979 C   0  0  0  0  0  0  0  0  0  0  0  0
   18.2058   18.0733   21.8622 H   0  0  0  0  0  0  0  0  0  0  0  0
   20.0773   18.6832   21.0732 C   0  0  0  0  0  0  0  0  0  0  0  0
   21.0170   18.3818   20.6110 H   0  0  0  0  0  0  0  0  0  0  0  0
   19.9173   20.1700   21.3147 C   0  0  0  0  0  0  0  0  0  0  0  0
   18.8621   20.4221   21.4873 H   0  0  0  0  0  0  0  0  0  0  0  0
   20.2170   20.7144   20.4093 H   0  0  0  0  0  0  0  0  0  0  0  0
   20.7703   20.6659   22.5028 C   0  0  0  0  0  0  0  0  0  0  0  0
   21.8256   20.4118   22.3322 H   0  0  0  0  0  0  0  0  0  0  0  0
   20.7153   21.7623   22.5505 H   0  0  0  0  0  0  0  0  0  0  0  0
   20.3057   20.0798   23.8531 C   0  0  0  0  0  0  0  0  0  0  0  0
   20.4073   18.9869   23.8665 H   0  0  0  0  0  0  0  0  0  0  0  0
   20.9081   20.4837   24.6770 H   0  0  0  0  0  0  0  0  0  0  0  0
   19.2543   20.3284   24.0480 H   0  0  0  0  0  0  0  0  0  0  0  0
  1  2  1  0  0  0  0
  1  3  2  0  0  0  0
  1  4  1  0  0  0  0
  4  5  1  0  0  0  0
  4  6  2  0  0  0  0
  6  7  1  0  0  0  0
  6  8  1  0  0  0  0
  8  9  1  0  0  0  0
  8 10  1  0  0  0  0
  8 11  1  0  0  0  0
 11 12  1  0  0  0  0
 11 13  1  0  0  0  0
 11 14  1  0  0  0  0
 14 15  1  0  0  0  0
 14 16  1  0  0  0  0
 14 17  1  0  0  0  0
M  END
> <VConfSearch Rank>
360

> <Conf_Id>
45

> <Delta U+W>
0.562

> <U+W>
-52.846

> <U>
10.243

> <W>
-63.089

> <W(PB)>
-65.116

> <W(SA)>
2.026

> <Valence>
2.822

> <Coulomb>
6.637

> <VdW>
0.785

> <VdW6>
-5.216

> <VdW12>
6.001

> <Bond>
0.080

> <Angle>
2.678

> <Pdih>
0.064

> <Idih>
0.000

> <Tether>
0.000

$$$$
VeraChem MOL file


 17 16  0  0  0  0  0  0  0  0999 V2000     
   19.4330   15.8081   22.2467 C   0  0  0  0  0  0  0  0  0  0  0  0
   20.0208   14.9934   22.9310 O   0  5  0  0  0  0  0  0  0  0  0  0
   18.6519   15.4928   21.3688 O   0  0  0  0  0  0  0  0  0  0  0  0
   19.6958   17.2481   22.5142 C   0  0  0  0  0  0  0  0  0  0  0  0
   20.4040   17.4612   23.3117 H   0  0  0  0  0  0  0  0  0  0  0  0
   19.1142   18.2601   21.8309 C   0  0  0  0  0  0  0  0  0  0  0  0
   18.4051   18.0579   21.0284 H   0  0  0  0  0  0  0  0  0  0  0  0
   19.3886   19.7220   22.1078 C   0  0  0  0  0  0  0  0  0  0  0  0
   19.4915   19.8866   23.1891 H   0  0  0  0  0  0  0  0  0  0  0  0
   18.5315   20.3256   21.7801 H   0  0  0  0  0  0  0  0  0  0  0  0
   20.6640   20.2011   21.3847 C   0  0  0  0  0  0  0  0  0  0  0  0
   21.5233   19.6009   21.7147 H   0  0  0  0  0  0  0  0  0  0  0  0
   20.5578   20.0374   20.3033 H   0  0  0  0  0  0  0  0  0  0  0  0
   20.9455   21.6930   21.6543 C   0  0  0  0  0  0  0  0  0  0  0  0
   20.1144   22.3192   21.3043 H   0  0  0  0  0  0  0  0  0  0  0  0
   21.0866   21.8785   22.7272 H   0  0  0  0  0  0  0  0  0  0  0  0
   21.8558   22.0153   21.1322 H   0  0  0  0  0  0  0  0  0  0  0  0
  1  2  1  0  0  0  0
  1  3  2  0  0  0  0
  1  4  1  0  0  0  0
  4  5  1  0  0  0  0
  4  6  2  0  0  0  0
  6  7  1  0  0  0  0
  6  8  1  0  0  0  0
  8  9  1  0  0  0  0
  8 10  1  0  0  0  0
  8 11  1  0  0  0  0
 11 12  1  0  0  0  0
 11 13  1  0  0  0  0
 11 14  1  0  0  0  0
 14 15  1  0  0  0  0
 14 16  1  0  0  0  0
 14 17  1  0  0  0  0
M  END
> <VConfSearch Rank>
361

> <Conf_Id>
36

> <Delta U+W>
0.000

> <U+W>
-53.409

> <U>
9.048

> <W>
-62.457

> <W(PB)>
-64.540

> <W(SA)>
2.084

> <Valence>
2.652

> <Coulomb>
5.578

> <VdW>
0.818

> <VdW6>
-4.534

> <VdW12>
5.352

> <Bond>
0.063

> <Angle>
2.579

> <Pdih>
0.010

> <Idih>
0.000

> <Tether>
0.000

$$$$
VeraChem MOL file


 17 16  0  0  0  0  0  0  0  0999 V2000     
   21.2437   16.4541   23.6167 C   0  0  0  0  0  0  0  0  0  0  0  0
   21.2136   15.5014   22.8604 O   0  5  0  0  0  0  0  0  0  0  0  0
   21.4777   16.3466   24.8047 O   0  0  0  0  0  0  0  0  0  0  0  0
   20.9873   17.8210   23.0874 C   0  0  0  0  0  0  0  0  0  0  0  0
   21.0293   18.6275   23.8158 H   0  0  0  0  0  0  0  0  0  0  0  0
   20.7133   18.0878   21.7902 C   0  0  0  0  0  0  0  0  0  0  0  0
   20.6667   17.2870   21.0524 H   0  0  0  0  0  0  0  0  0  0  0  0
   20.4520   19.4807   21.2604 C   0  0  0  0  0  0  0  0  0  0  0  0
   20.6922   19.5179   20.1893 H   0  0  0  0  0  0  0  0  0  0  0  0
   21.1171   20.2016   21.7551 H   0  0  0  0  0  0  0  0  0  0  0  0
   18.9822   19.8967   21.4744 C   0  0  0  0  0  0  0  0  0  0  0  0
   18.3190   19.1755   20.9770 H   0  0  0  0  0  0  0  0  0  0  0  0
   18.7414   19.8640   22.5461 H   0  0  0  0  0  0  0  0  0  0  0  0
   18.7054   21.3120   20.9287 C   0  0  0  0  0  0  0  0  0  0  0  0
   18.9082   21.3643   19.8509 H   0  0  0  0  0  0  0  0  0  0  0  0
   17.6557   21.5902   21.0898 H   0  0  0  0  0  0  0  0  0  0  0  0
   19.3346   22.0574   21.4326 H   0  0  0  0  0  0  0  0  0  0  0  0
  1  2  1  0  0  0  0
  1  3  2  0  0  0  0
  1  4  1  0  0  0  0
  4  5  1  0  0  0  0
  4  6  2  0  0  0  0
  6  7  1  0  0  0  0
  6  8  1  0  0  0  0
  8  9  1  0  0  0  0
  8 10  1  0  0  0  0
  8 11  1  0  0  0  0
 11 12  1  0  0  0  0
 11 13  1  0  0  0  0
 11 14  1  0  0  0  0
 14 15  1  0  0  0  0
 14 16  1  0  0  0  0
 14 17  1  0  0  0  0
M  END
> <VConfSearch Rank>
362

> <Conf_Id>
1

> <Delta U+W>
0.030

> <U+W>
-53.378

> <U>
9.048

> <W>
-62.426

> <W(PB)>
-64.506

> <W(SA)>
2.080

> <Valence>
2.652

> <Coulomb>
5.578

> <VdW>
0.818

> <VdW6>
-4.535

> <VdW12>
5.352

> <Bond>
0.063

> <Angle>
2.579

> <Pdih>
0.010

> <Idih>
0.000

> <Tether>
0.000

$$$$
VeraChem MOL file


 17 16  0  0  0  0  0  0  0  0999 V2000     
   21.6738   21.6866   22.0662 C   0  0  0  0  0  0  0  0  0  0  0  0
   22.6732   21.3055   22.6463 O   0  5  0  0  0  0  0  0  0  0  0  0
   21.6334   22.7235   21.4328 O   0  0  0  0  0  0  0  0  0  0  0  0
   20.4332   20.8669   22.1225 C   0  0  0  0  0  0  0  0  0  0  0  0
   19.5764   21.2648   21.5837 H   0  0  0  0  0  0  0  0  0  0  0  0
   20.3349   19.6934   22.7874 C   0  0  0  0  0  0  0  0  0  0  0  0
   21.1881   19.2838   23.3278 H   0  0  0  0  0  0  0  0  0  0  0  0
   19.0699   18.8626   22.8371 C   0  0  0  0  0  0  0  0  0  0  0  0
   18.2002   19.5227   22.9569 H   0  0  0  0  0  0  0  0  0  0  0  0
   19.0851   18.2126   23.7223 H   0  0  0  0  0  0  0  0  0  0  0  0
   18.8815   18.0025   21.5681 C   0  0  0  0  0  0  0  0  0  0  0  0
   17.9024   17.5059   21.6128 H   0  0  0  0  0  0  0  0  0  0  0  0
   18.8646   18.6503   20.6807 H   0  0  0  0  0  0  0  0  0  0  0  0
   19.9829   16.9326   21.4099 C   0  0  0  0  0  0  0  0  0  0  0  0
   20.0099   16.2650   22.2809 H   0  0  0  0  0  0  0  0  0  0  0  0
   19.7998   16.3192   20.5182 H   0  0  0  0  0  0  0  0  0  0  0  0
   20.9724   17.3958   21.3021 H   0  0  0  0  0  0  0  0  0  0  0  0
  1  2  1  0  0  0  0
  1  3  2  0  0  0  0
  1  4  1  0  0  0  0
  4  5  1  0  0  0  0
  4  6  2  0  0  0  0
  6  7  1  0  0  0  0
  6  8  1  0  0  0  0
  8  9  1  0  0  0  0
  8 10  1  0  0  0  0
  8 11  1  0  0  0  0
 11 12  1  0  0  0  0
 11 13  1  0  0  0  0
 11 14  1  0  0  0  0
 14 15  1  0  0  0  0
 14 16  1  0  0  0  0
 14 17  1  0  0  0  0
M  END
> <VConfSearch Rank>
363

> <Conf_Id>
3

> <Delta U+W>
0.531

> <U+W>
-52.878

> <U>
10.067

> <W>
-62.945

> <W(PB)>
-64.982

> <W(SA)>
2.037

> <Valence>
2.779

> <Coulomb>
6.474

> <VdW>
0.815

> <VdW6>
-5.088

> <VdW12>
5.902

> <Bond>
0.078

> <Angle>
2.651

> <Pdih>
0.050

> <Idih>
0.000

> <Tether>
0.000

$$$$
VeraChem MOL file


 17 16  0  0  0  0  0  0  0  0999 V2000     
   20.3000   17.6179   19.4653 C   0  0  0  0  0  0  0  0  0  0  0  0
   19.7261   16.6251   19.0619 O   0  5  0  0  0  0  0  0  0  0  0  0
   21.3720   17.9864   19.0231 O   0  0  0  0  0  0  0  0  0  0  0  0
   19.6413   18.4016   20.5451 C   0  0  0  0  0  0  0  0  0  0  0  0
   18.6858   18.0172   20.8943 H   0  0  0  0  0  0  0  0  0  0  0  0
   20.1658   19.5234   21.0892 C   0  0  0  0  0  0  0  0  0  0  0  0
   21.1243   19.9135   20.7478 H   0  0  0  0  0  0  0  0  0  0  0  0
   19.4941   20.3176   22.1903 C   0  0  0  0  0  0  0  0  0  0  0  0
   18.4300   20.0544   22.2627 H   0  0  0  0  0  0  0  0  0  0  0  0
   19.5277   21.3849   21.9340 H   0  0  0  0  0  0  0  0  0  0  0  0
   20.1743   20.1102   23.5613 C   0  0  0  0  0  0  0  0  0  0  0  0
   21.2394   20.3708   23.4891 H   0  0  0  0  0  0  0  0  0  0  0  0
   19.7306   20.8024   24.2900 H   0  0  0  0  0  0  0  0  0  0  0  0
   20.0265   18.6657   24.0852 C   0  0  0  0  0  0  0  0  0  0  0  0
   20.5158   17.9486   23.4134 H   0  0  0  0  0  0  0  0  0  0  0  0
   20.4867   18.5657   25.0766 H   0  0  0  0  0  0  0  0  0  0  0  0
   18.9685   18.3863   24.1725 H   0  0  0  0  0  0  0  0  0  0  0  0
  1  2  1  0  0  0  0
  1  3  2  0  0  0  0
  1  4  1  0  0  0  0
  4  5  1  0  0  0  0
  4  6  2  0  0  0  0
  6  7  1  0  0  0  0
  6  8  1  0  0  0  0
  8  9  1  0  0  0  0
  8 10  1  0  0  0  0
  8 11  1  0  0  0  0
 11 12  1  0  0  0  0
 11 13  1  0  0  0  0
 11 14  1  0  0  0  0
 14 15  1  0  0  0  0
 14 16  1  0  0  0  0
 14 17  1  0  0  0  0
M  END
> <VConfSearch Rank>
364

> <Conf_Id>
45

> <Delta U+W>
0.562

> <U+W>
-52.846

> <U>
10.243

> <W>
-63.089

> <W(PB)>
-65.116

> <W(SA)>
2.026

> <Valence>
2.822

> <Coulomb>
6.637

> <VdW>
0.785

> <VdW6>
-5.216

> <VdW12>
6.001

> <Bond>
0.080

> <Angle>
2.678

> <Pdih>
0.064

> <Idih>
0.000

> <Tether>
0.000

$$$$
VeraChem MOL file


 17 16  0  0  0  0  0  0  0  0999 V2000     
   20.5353   20.7099   18.9897 C   0  0  0  0  0  0  0  0  0  0  0  0
   21.4537   20.5834   18.2034 O   0  5  0  0  0  0  0  0  0  0  0  0
   19.7462   21.6347   18.9404 O   0  0  0  0  0  0  0  0  0  0  0  0
   20.3895   19.6750   20.0489 C   0  0  0  0  0  0  0  0  0  0  0  0
   21.1274   18.8761   20.0365 H   0  0  0  0  0  0  0  0  0  0  0  0
   19.4171   19.6902   20.9887 C   0  0  0  0  0  0  0  0  0  0  0  0
   18.6741   20.4872   21.0117 H   0  0  0  0  0  0  0  0  0  0  0  0
   19.2771   18.6349   22.0638 C   0  0  0  0  0  0  0  0  0  0  0  0
   19.5128   17.6445   21.6510 H   0  0  0  0  0  0  0  0  0  0  0  0
   18.2334   18.5917   22.4032 H   0  0  0  0  0  0  0  0  0  0  0  0
   20.1985   18.9308   23.2649 C   0  0  0  0  0  0  0  0  0  0  0  0
   21.2437   18.9702   22.9278 H   0  0  0  0  0  0  0  0  0  0  0  0
   19.9595   19.9209   23.6774 H   0  0  0  0  0  0  0  0  0  0  0  0
   20.0548   17.8647   24.3695 C   0  0  0  0  0  0  0  0  0  0  0  0
   19.0247   17.8265   24.7473 H   0  0  0  0  0  0  0  0  0  0  0  0
   20.3184   16.8685   23.9907 H   0  0  0  0  0  0  0  0  0  0  0  0
   20.7174   18.0919   25.2148 H   0  0  0  0  0  0  0  0  0  0  0  0
  1  2  1  0  0  0  0
  1  3  2  0  0  0  0
  1  4  1  0  0  0  0
  4  5  1  0  0  0  0
  4  6  2  0  0  0  0
  6  7  1  0  0  0  0
  6  8  1  0  0  0  0
  8  9  1  0  0  0  0
  8 10  1  0  0  0  0
  8 11  1  0  0  0  0
 11 12  1  0  0  0  0
 11 13  1  0  0  0  0
 11 14  1  0  0  0  0
 14 15  1  0  0  0  0
 14 16  1  0  0  0  0
 14 17  1  0  0  0  0
M  END
> <VConfSearch Rank>
365

> <Conf_Id>
36

> <Delta U+W>
0.000

> <U+W>
-53.409

> <U>
9.048

> <W>
-62.457

> <W(PB)>
-64.540

> <W(SA)>
2.084

> <Valence>
2.652

> <Coulomb>
5.578

> <VdW>
0.818

> <VdW6>
-4.534

> <VdW12>
5.352

> <Bond>
0.063

> <Angle>
2.579

> <Pdih>
0.010

> <Idih>
0.000

> <Tether>
0.000

$$$$
VeraChem MOL file


 17 16  0  0  0  0  0  0  0  0999 V2000     
   17.3660   20.1256   23.7300 C   0  0  0  0  0  0  0  0  0  0  0  0
   16.7442   20.9066   23.0344 O   0  5  0  0  0  0  0  0  0  0  0  0
   17.1369   19.9691   24.9135 O   0  0  0  0  0  0  0  0  0  0  0  0
   18.4584   19.3142   23.1280 C   0  0  0  0  0  0  0  0  0  0  0  0
   18.9738   18.6360   23.8042 H   0  0  0  0  0  0  0  0  0  0  0  0
   18.8216   19.3861   21.8272 C   0  0  0  0  0  0  0  0  0  0  0  0
   18.3134   20.0638   21.1414 H   0  0  0  0  0  0  0  0  0  0  0  0
   19.9351   18.5586   21.2233 C   0  0  0  0  0  0  0  0  0  0  0  0
   19.7649   18.4446   20.1442 H   0  0  0  0  0  0  0  0  0  0  0  0
   19.9246   17.5464   21.6500 H   0  0  0  0  0  0  0  0  0  0  0  0
   21.3125   19.2102   21.4625 C   0  0  0  0  0  0  0  0  0  0  0  0
   21.3212   20.2216   21.0330 H   0  0  0  0  0  0  0  0  0  0  0  0
   21.4862   19.3213   22.5419 H   0  0  0  0  0  0  0  0  0  0  0  0
   22.4522   18.3774   20.8419 C   0  0  0  0  0  0  0  0  0  0  0  0
   22.3199   18.2775   19.7565 H   0  0  0  0  0  0  0  0  0  0  0  0
   23.4235   18.8563   21.0221 H   0  0  0  0  0  0  0  0  0  0  0  0
   22.4850   17.3702   21.2775 H   0  0  0  0  0  0  0  0  0  0  0  0
  1  2  1  0  0  0  0
  1  3  2  0  0  0  0
  1  4  1  0  0  0  0
  4  5  1  0  0  0  0
  4  6  2  0  0  0  0
  6  7  1  0  0  0  0
  6  8  1  0  0  0  0
  8  9  1  0  0  0  0
  8 10  1  0  0  0  0
  8 11  1  0  0  0  0
 11 12  1  0  0  0  0
 11 13  1  0  0  0  0
 11 14  1  0  0  0  0
 14 15  1  0  0  0  0
 14 16  1  0  0  0  0
 14 17  1  0  0  0  0
M  END
> <VConfSearch Rank>
366

> <Conf_Id>
1

> <Delta U+W>
0.030

> <U+W>
-53.378

> <U>
9.048

> <W>
-62.426

> <W(PB)>
-64.506

> <W(SA)>
2.080

> <Valence>
2.652

> <Coulomb>
5.578

> <VdW>
0.818

> <VdW6>
-4.535

> <VdW12>
5.352

> <Bond>
0.063

> <Angle>
2.579

> <Pdih>
0.010

> <Idih>
0.000

> <Tether>
0.000

$$$$
VeraChem MOL file


 17 16  0  0  0  0  0  0  0  0999 V2000     
   16.9715   19.4632   21.7553 C   0  0  0  0  0  0  0  0  0  0  0  0
   16.7592   18.7708   20.7776 O   0  5  0  0  0  0  0  0  0  0  0  0
   16.0876   19.8481   22.4958 O   0  0  0  0  0  0  0  0  0  0  0  0
   18.3652   19.8728   22.0777 C   0  0  0  0  0  0  0  0  0  0  0  0
   18.4852   20.4917   22.9639 H   0  0  0  0  0  0  0  0  0  0  0  0
   19.4441   19.5173   21.3438 C   0  0  0  0  0  0  0  0  0  0  0  0
   19.3357   18.8947   20.4560 H   0  0  0  0  0  0  0  0  0  0  0  0
   20.8602   19.9348   21.6804 C   0  0  0  0  0  0  0  0  0  0  0  0
   20.8664   20.9817   22.0128 H   0  0  0  0  0  0  0  0  0  0  0  0
   21.4848   19.8966   20.7778 H   0  0  0  0  0  0  0  0  0  0  0  0
   21.4878   19.0507   22.7804 C   0  0  0  0  0  0  0  0  0  0  0  0
   22.4683   19.4627   23.0565 H   0  0  0  0  0  0  0  0  0  0  0  0
   20.8657   19.0880   23.6854 H   0  0  0  0  0  0  0  0  0  0  0  0
   21.6650   17.5846   22.3313 C   0  0  0  0  0  0  0  0  0  0  0  0
   22.2948   17.5220   21.4343 H   0  0  0  0  0  0  0  0  0  0  0  0
   22.1433   16.9936   23.1231 H   0  0  0  0  0  0  0  0  0  0  0  0
   20.6966   17.1203   22.1035 H   0  0  0  0  0  0  0  0  0  0  0  0
  1  2  1  0  0  0  0
  1  3  2  0  0  0  0
  1  4  1  0  0  0  0
  4  5  1  0  0  0  0
  4  6  2  0  0  0  0
  6  7  1  0  0  0  0
  6  8  1  0  0  0  0
  8  9  1  0  0  0  0
  8 10  1  0  0  0  0
  8 11  1  0  0  0  0
 11 12  1  0  0  0  0
 11 13  1  0  0  0  0
 11 14  1  0  0  0  0
 14 15  1  0  0  0  0
 14 16  1  0  0  0  0
 14 17  1  0  0  0  0
M  END
> <VConfSearch Rank>
367

> <Conf_Id>
3

> <Delta U+W>
0.531

> <U+W>
-52.878

> <U>
10.067

> <W>
-62.945

> <W(PB)>
-64.982

> <W(SA)>
2.037

> <Valence>
2.779

> <Coulomb>
6.474

> <VdW>
0.815

> <VdW6>
-5.088

> <VdW12>
5.902

> <Bond>
0.078

> <Angle>
2.651

> <Pdih>
0.050

> <Idih>
0.000

> <Tether>
0.000

$$$$
VeraChem MOL file


 17 16  0  0  0  0  0  0  0  0999 V2000     
   22.2486   21.0611   22.4086 C   0  0  0  0  0  0  0  0  0  0  0  0
   22.7004   21.5587   23.4216 O   0  5  0  0  0  0  0  0  0  0  0  0
   22.4104   21.5474   21.3051 O   0  0  0  0  0  0  0  0  0  0  0  0
   21.4699   19.8011   22.5500 C   0  0  0  0  0  0  0  0  0  0  0  0
   21.3635   19.4210   23.5634 H   0  0  0  0  0  0  0  0  0  0  0  0
   20.9090   19.1412   21.5110 C   0  0  0  0  0  0  0  0  0  0  0  0
   21.0077   19.5171   20.4929 H   0  0  0  0  0  0  0  0  0  0  0  0
   20.1145   17.8601   21.6585 C   0  0  0  0  0  0  0  0  0  0  0  0
   20.3141   17.3914   22.6317 H   0  0  0  0  0  0  0  0  0  0  0  0
   20.4497   17.1411   20.8990 H   0  0  0  0  0  0  0  0  0  0  0  0
   18.5961   18.0899   21.4949 C   0  0  0  0  0  0  0  0  0  0  0  0
   18.3957   18.5611   20.5227 H   0  0  0  0  0  0  0  0  0  0  0  0
   18.0855   17.1170   21.4833 H   0  0  0  0  0  0  0  0  0  0  0  0
   18.0013   18.9564   22.6255 C   0  0  0  0  0  0  0  0  0  0  0  0
   18.4425   19.9616   22.6281 H   0  0  0  0  0  0  0  0  0  0  0  0
   16.9166   19.0657   22.4982 H   0  0  0  0  0  0  0  0  0  0  0  0
   18.1834   18.4999   23.6071 H   0  0  0  0  0  0  0  0  0  0  0  0
  1  2  1  0  0  0  0
  1  3  2  0  0  0  0
  1  4  1  0  0  0  0
  4  5  1  0  0  0  0
  4  6  2  0  0  0  0
  6  7  1  0  0  0  0
  6  8  1  0  0  0  0
  8  9  1  0  0  0  0
  8 10  1  0  0  0  0
  8 11  1  0  0  0  0
 11 12  1  0  0  0  0
 11 13  1  0  0  0  0
 11 14  1  0  0  0  0
 14 15  1  0  0  0  0
 14 16  1  0  0  0  0
 14 17  1  0  0  0  0
M  END
> <VConfSearch Rank>
368

> <Conf_Id>
45

> <Delta U+W>
0.562

> <U+W>
-52.846

> <U>
10.243

> <W>
-63.089

> <W(PB)>
-65.116

> <W(SA)>
2.026

> <Valence>
2.822

> <Coulomb>
6.637

> <VdW>
0.785

> <VdW6>
-5.216

> <VdW12>
6.001

> <Bond>
0.080

> <Angle>
2.678

> <Pdih>
0.064

> <Idih>
0.000

> <Tether>
0.000

$$$$
VeraChem MOL file


 17 16  0  0  0  0  0  0  0  0999 V2000     
   19.2757   21.1463   19.3158 C   0  0  0  0  0  0  0  0  0  0  0  0
   18.6690   22.1996   19.3068 O   0  5  0  0  0  0  0  0  0  0  0  0
   19.5402   20.5275   18.3020 O   0  0  0  0  0  0  0  0  0  0  0  0
   19.7045   20.6110   20.6363 C   0  0  0  0  0  0  0  0  0  0  0  0
   19.4365   21.2126   21.5019 H   0  0  0  0  0  0  0  0  0  0  0  0
   20.3840   19.4526   20.7955 C   0  0  0  0  0  0  0  0  0  0  0  0
   20.6555   18.8409   19.9353 H   0  0  0  0  0  0  0  0  0  0  0  0
   20.8145   18.9142   22.1424 C   0  0  0  0  0  0  0  0  0  0  0  0
   21.1396   19.7396   22.7903 H   0  0  0  0  0  0  0  0  0  0  0  0
   21.6845   18.2561   22.0144 H   0  0  0  0  0  0  0  0  0  0  0  0
   19.6733   18.1340   22.8264 C   0  0  0  0  0  0  0  0  0  0  0  0
   18.8035   18.7923   22.9590 H   0  0  0  0  0  0  0  0  0  0  0  0
   19.3513   17.3078   22.1774 H   0  0  0  0  0  0  0  0  0  0  0  0
   20.1071   17.5738   24.1959 C   0  0  0  0  0  0  0  0  0  0  0  0
   20.9565   16.8866   24.0882 H   0  0  0  0  0  0  0  0  0  0  0  0
   20.4049   18.3835   24.8751 H   0  0  0  0  0  0  0  0  0  0  0  0
   19.2829   17.0225   24.6669 H   0  0  0  0  0  0  0  0  0  0  0  0
  1  2  1  0  0  0  0
  1  3  2  0  0  0  0
  1  4  1  0  0  0  0
  4  5  1  0  0  0  0
  4  6  2  0  0  0  0
  6  7  1  0  0  0  0
  6  8  1  0  0  0  0
  8  9  1  0  0  0  0
  8 10  1  0  0  0  0
  8 11  1  0  0  0  0
 11 12  1  0  0  0  0
 11 13  1  0  0  0  0
 11 14  1  0  0  0  0
 14 15  1  0  0  0  0
 14 16  1  0  0  0  0
 14 17  1  0  0  0  0
M  END
> <VConfSearch Rank>
369

> <Conf_Id>
36

> <Delta U+W>
0.000

> <U+W>
-53.409

> <U>
9.048

> <W>
-62.457

> <W(PB)>
-64.540

> <W(SA)>
2.084

> <Valence>
2.652

> <Coulomb>
5.578

> <VdW>
0.818

> <VdW6>
-4.534

> <VdW12>
5.352

> <Bond>
0.063

> <Angle>
2.579

> <Pdih>
0.010

> <Idih>
0.000

> <Tether>
0.000

$$$$
VeraChem MOL file


 17 16  0  0  0  0  0  0  0  0999 V2000     
   17.4660   21.2917   21.6860 C   0  0  0  0  0  0  0  0  0  0  0  0
   17.7032   22.1890   22.4728 O   0  5  0  0  0  0  0  0  0  0  0  0
   16.3941   21.1716   21.1254 O   0  0  0  0  0  0  0  0  0  0  0  0
   18.5189   20.2860   21.3792 C   0  0  0  0  0  0  0  0  0  0  0  0
   18.2421   19.5110   20.6681 H   0  0  0  0  0  0  0  0  0  0  0  0
   19.7544   20.2964   21.9292 C   0  0  0  0  0  0  0  0  0  0  0  0
   20.0415   21.0670   22.6445 H   0  0  0  0  0  0  0  0  0  0  0  0
   20.8188   19.2686   21.6132 C   0  0  0  0  0  0  0  0  0  0  0  0
   21.8122   19.6991   21.7982 H   0  0  0  0  0  0  0  0  0  0  0  0
   20.7847   19.0084   20.5464 H   0  0  0  0  0  0  0  0  0  0  0  0
   20.6412   17.9954   22.4655 C   0  0  0  0  0  0  0  0  0  0  0  0
   20.6779   18.2579   23.5319 H   0  0  0  0  0  0  0  0  0  0  0  0
   19.6492   17.5611   22.2785 H   0  0  0  0  0  0  0  0  0  0  0  0
   21.7280   16.9463   22.1558 C   0  0  0  0  0  0  0  0  0  0  0  0
   22.7295   17.3446   22.3647 H   0  0  0  0  0  0  0  0  0  0  0  0
   21.5853   16.0484   22.7712 H   0  0  0  0  0  0  0  0  0  0  0  0
   21.6924   16.6433   21.1011 H   0  0  0  0  0  0  0  0  0  0  0  0
  1  2  1  0  0  0  0
  1  3  2  0  0  0  0
  1  4  1  0  0  0  0
  4  5  1  0  0  0  0
  4  6  2  0  0  0  0
  6  7  1  0  0  0  0
  6  8  1  0  0  0  0
  8  9  1  0  0  0  0
  8 10  1  0  0  0  0
  8 11  1  0  0  0  0
 11 12  1  0  0  0  0
 11 13  1  0  0  0  0
 11 14  1  0  0  0  0
 14 15  1  0  0  0  0
 14 16  1  0  0  0  0
 14 17  1  0  0  0  0
M  END
> <VConfSearch Rank>
370

> <Conf_Id>
1

> <Delta U+W>
0.030

> <U+W>
-53.378

> <U>
9.048

> <W>
-62.426

> <W(PB)>
-64.506

> <W(SA)>
2.080

> <Valence>
2.652

> <Coulomb>
5.578

> <VdW>
0.818

> <VdW6>
-4.535

> <VdW12>
5.352

> <Bond>
0.063

> <Angle>
2.579

> <Pdih>
0.010

> <Idih>
0.000

> <Tether>
0.000

$$$$
VeraChem MOL file


 17 16  0  0  0  0  0  0  0  0999 V2000     
   22.0682   19.7179   24.2626 C   0  0  0  0  0  0  0  0  0  0  0  0
   21.3561   19.6520   25.2469 O   0  5  0  0  0  0  0  0  0  0  0  0
   23.2822   19.7027   24.3243 O   0  0  0  0  0  0  0  0  0  0  0  0
   21.4499   19.8258   22.9135 C   0  0  0  0  0  0  0  0  0  0  0  0
   22.1425   19.8817   22.0769 H   0  0  0  0  0  0  0  0  0  0  0  0
   20.1153   19.8524   22.6961 C   0  0  0  0  0  0  0  0  0  0  0  0
   19.4123   19.7936   23.5267 H   0  0  0  0  0  0  0  0  0  0  0  0
   19.4932   19.9585   21.3196 C   0  0  0  0  0  0  0  0  0  0  0  0
   20.0632   20.6743   20.7119 H   0  0  0  0  0  0  0  0  0  0  0  0
   18.4767   20.3667   21.4003 H   0  0  0  0  0  0  0  0  0  0  0  0
   19.4470   18.5984   20.5892 C   0  0  0  0  0  0  0  0  0  0  0  0
   19.0862   18.7538   19.5631 H   0  0  0  0  0  0  0  0  0  0  0  0
   20.4629   18.1880   20.5058 H   0  0  0  0  0  0  0  0  0  0  0  0
   18.5305   17.5778   21.2970 C   0  0  0  0  0  0  0  0  0  0  0  0
   17.5055   17.9620   21.3803 H   0  0  0  0  0  0  0  0  0  0  0  0
   18.4947   16.6360   20.7342 H   0  0  0  0  0  0  0  0  0  0  0  0
   18.8952   17.3520   22.3076 H   0  0  0  0  0  0  0  0  0  0  0  0
  1  2  1  0  0  0  0
  1  3  2  0  0  0  0
  1  4  1  0  0  0  0
  4  5  1  0  0  0  0
  4  6  2  0  0  0  0
  6  7  1  0  0  0  0
  6  8  1  0  0  0  0
  8  9  1  0  0  0  0
  8 10  1  0  0  0  0
  8 11  1  0  0  0  0
 11 12  1  0  0  0  0
 11 13  1  0  0  0  0
 11 14  1  0  0  0  0
 14 15  1  0  0  0  0
 14 16  1  0  0  0  0
 14 17  1  0  0  0  0
M  END
> <VConfSearch Rank>
371

> <Conf_Id>
3

> <Delta U+W>
0.531

> <U+W>
-52.878

> <U>
10.067

> <W>
-62.945

> <W(PB)>
-64.982

> <W(SA)>
2.037

> <Valence>
2.779

> <Coulomb>
6.474

> <VdW>
0.815

> <VdW6>
-5.088

> <VdW12>
5.902

> <Bond>
0.078

> <Angle>
2.651

> <Pdih>
0.050

> <Idih>
0.000

> <Tether>
0.000

$$$$
VeraChem MOL file


 17 16  0  0  0  0  0  0  0  0999 V2000     
   21.4312   18.3605   19.5354 C   0  0  0  0  0  0  0  0  0  0  0  0
   22.5653   18.6253   19.1871 O   0  5  0  0  0  0  0  0  0  0  0  0
   20.5565   18.0435   18.7512 O   0  0  0  0  0  0  0  0  0  0  0  0
   21.1247   18.4311   20.9898 C   0  0  0  0  0  0  0  0  0  0  0  0
   21.9512   18.7204   21.6347 H   0  0  0  0  0  0  0  0  0  0  0  0
   19.9078   18.1654   21.5172 C   0  0  0  0  0  0  0  0  0  0  0  0
   19.0733   17.8784   20.8779 H   0  0  0  0  0  0  0  0  0  0  0  0
   19.5982   18.2408   22.9980 C   0  0  0  0  0  0  0  0  0  0  0  0
   20.5250   18.2301   23.5876 H   0  0  0  0  0  0  0  0  0  0  0  0
   19.0383   17.3434   23.2932 H   0  0  0  0  0  0  0  0  0  0  0  0
   18.7672   19.4912   23.3602 C   0  0  0  0  0  0  0  0  0  0  0  0
   17.8411   19.5041   22.7689 H   0  0  0  0  0  0  0  0  0  0  0  0
   18.4653   19.4279   24.4147 H   0  0  0  0  0  0  0  0  0  0  0  0
   19.5448   20.8060   23.1378 C   0  0  0  0  0  0  0  0  0  0  0  0
   19.8086   20.9362   22.0802 H   0  0  0  0  0  0  0  0  0  0  0  0
   18.9387   21.6692   23.4419 H   0  0  0  0  0  0  0  0  0  0  0  0
   20.4716   20.8182   23.7259 H   0  0  0  0  0  0  0  0  0  0  0  0
  1  2  1  0  0  0  0
  1  3  2  0  0  0  0
  1  4  1  0  0  0  0
  4  5  1  0  0  0  0
  4  6  2  0  0  0  0
  6  7  1  0  0  0  0
  6  8  1  0  0  0  0
  8  9  1  0  0  0  0
  8 10  1  0  0  0  0
  8 11  1  0  0  0  0
 11 12  1  0  0  0  0
 11 13  1  0  0  0  0
 11 14  1  0  0  0  0
 14 15  1  0  0  0  0
 14 16  1  0  0  0  0
 14 17  1  0  0  0  0
M  END
> <VConfSearch Rank>
372

> <Conf_Id>
45

> <Delta U+W>
0.562

> <U+W>
-52.846

> <U>
10.243

> <W>
-63.089

> <W(PB)>
-65.116

> <W(SA)>
2.026

> <Valence>
2.822

> <Coulomb>
6.637

> <VdW>
0.785

> <VdW6>
-5.216

> <VdW12>
6.001

> <Bond>
0.080

> <Angle>
2.678

> <Pdih>
0.064

> <Idih>
0.000

> <Tether>
0.000

$$$$
VeraChem MOL file


 17 16  0  0  0  0  0  0  0  0999 V2000     
   22.1966   20.7772   19.9722 C   0  0  0  0  0  0  0  0  0  0  0  0
   23.4099   20.8102   20.0405 O   0  5  0  0  0  0  0  0  0  0  0  0
   21.5520   21.5522   19.2908 O   0  0  0  0  0  0  0  0  0  0  0  0
   21.4915   19.7335   20.7644 C   0  0  0  0  0  0  0  0  0  0  0  0
   22.1262   19.0736   21.3514 H   0  0  0  0  0  0  0  0  0  0  0  0
   20.1477   19.5816   20.7840 C   0  0  0  0  0  0  0  0  0  0  0  0
   19.5022   20.2388   20.2015 H   0  0  0  0  0  0  0  0  0  0  0  0
   19.4383   18.5189   21.5942 C   0  0  0  0  0  0  0  0  0  0  0  0
   20.0142   17.5836   21.5730 H   0  0  0  0  0  0  0  0  0  0  0  0
   18.4646   18.2967   21.1371 H   0  0  0  0  0  0  0  0  0  0  0  0
   19.2320   18.9700   23.0547 C   0  0  0  0  0  0  0  0  0  0  0  0
   20.2057   19.1887   23.5148 H   0  0  0  0  0  0  0  0  0  0  0  0
   18.6541   19.9045   23.0734 H   0  0  0  0  0  0  0  0  0  0  0  0
   18.5010   17.8959   23.8850 C   0  0  0  0  0  0  0  0  0  0  0  0
   17.5099   17.6811   23.4644 H   0  0  0  0  0  0  0  0  0  0  0  0
   19.0741   16.9598   23.9080 H   0  0  0  0  0  0  0  0  0  0  0  0
   18.3636   18.2346   24.9202 H   0  0  0  0  0  0  0  0  0  0  0  0
  1  2  1  0  0  0  0
  1  3  2  0  0  0  0
  1  4  1  0  0  0  0
  4  5  1  0  0  0  0
  4  6  2  0  0  0  0
  6  7  1  0  0  0  0
  6  8  1  0  0  0  0
  8  9  1  0  0  0  0
  8 10  1  0  0  0  0
  8 11  1  0  0  0  0
 11 12  1  0  0  0  0
 11 13  1  0  0  0  0
 11 14  1  0  0  0  0
 14 15  1  0  0  0  0
 14 16  1  0  0  0  0
 14 17  1  0  0  0  0
M  END
> <VConfSearch Rank>
373

> <Conf_Id>
36

> <Delta U+W>
0.000

> <U+W>
-53.409

> <U>
9.048

> <W>
-62.457

> <W(PB)>
-64.540

> <W(SA)>
2.084

> <Valence>
2.652

> <Coulomb>
5.578

> <VdW>
0.818

> <VdW6>
-4.534

> <VdW12>
5.352

> <Bond>
0.063

> <Angle>
2.579

> <Pdih>
0.010

> <Idih>
0.000

> <Tether>
0.000

$$$$
VeraChem MOL file


 17 16  0  0  0  0  0  0  0  0999 V2000     
   23.2331   19.4950   20.9894 C   0  0  0  0  0  0  0  0  0  0  0  0
   23.3666   20.6628   20.6752 O   0  5  0  0  0  0  0  0  0  0  0  0
   24.0827   18.6525   20.7749 O   0  0  0  0  0  0  0  0  0  0  0  0
   21.9844   19.0548   21.6685 C   0  0  0  0  0  0  0  0  0  0  0  0
   21.9292   17.9986   21.9223 H   0  0  0  0  0  0  0  0  0  0  0  0
   20.9574   19.8822   21.9680 C   0  0  0  0  0  0  0  0  0  0  0  0
   21.0013   20.9417   21.7163 H   0  0  0  0  0  0  0  0  0  0  0  0
   19.6900   19.4261   22.6571 C   0  0  0  0  0  0  0  0  0  0  0  0
   19.2279   20.2760   23.1772 H   0  0  0  0  0  0  0  0  0  0  0  0
   19.9291   18.6806   23.4278 H   0  0  0  0  0  0  0  0  0  0  0  0
   18.6859   18.8296   21.6496 C   0  0  0  0  0  0  0  0  0  0  0  0
   18.4468   19.5778   20.8811 H   0  0  0  0  0  0  0  0  0  0  0  0
   19.1454   17.9765   21.1313 H   0  0  0  0  0  0  0  0  0  0  0  0
   17.3875   18.3707   22.3431 C   0  0  0  0  0  0  0  0  0  0  0  0
   16.8905   19.2122   22.8433 H   0  0  0  0  0  0  0  0  0  0  0  0
   16.6861   17.9497   21.6110 H   0  0  0  0  0  0  0  0  0  0  0  0
   17.5957   17.5988   23.0956 H   0  0  0  0  0  0  0  0  0  0  0  0
  1  2  1  0  0  0  0
  1  3  2  0  0  0  0
  1  4  1  0  0  0  0
  4  5  1  0  0  0  0
  4  6  2  0  0  0  0
  6  7  1  0  0  0  0
  6  8  1  0  0  0  0
  8  9  1  0  0  0  0
  8 10  1  0  0  0  0
  8 11  1  0  0  0  0
 11 12  1  0  0  0  0
 11 13  1  0  0  0  0
 11 14  1  0  0  0  0
 14 15  1  0  0  0  0
 14 16  1  0  0  0  0
 14 17  1  0  0  0  0
M  END
> <VConfSearch Rank>
374

> <Conf_Id>
1

> <Delta U+W>
0.030

> <U+W>
-53.378

> <U>
9.048

> <W>
-62.426

> <W(PB)>
-64.506

> <W(SA)>
2.080

> <Valence>
2.652

> <Coulomb>
5.578

> <VdW>
0.818

> <VdW6>
-4.535

> <VdW12>
5.352

> <Bond>
0.063

> <Angle>
2.579

> <Pdih>
0.010

> <Idih>
0.000

> <Tether>
0.000

$$$$
VeraChem MOL file


 17 16  0  0  0  0  0  0  0  0999 V2000     
   21.1805   19.9831   24.7603 C   0  0  0  0  0  0  0  0  0  0  0  0
   20.8349   19.0534   25.4650 O   0  5  0  0  0  0  0  0  0  0  0  0
   22.0291   20.7860   25.0965 O   0  0  0  0  0  0  0  0  0  0  0  0
   20.5490   20.1688   23.4258 C   0  0  0  0  0  0  0  0  0  0  0  0
   20.9026   21.0192   22.8475 H   0  0  0  0  0  0  0  0  0  0  0  0
   19.5944   19.3529   22.9237 C   0  0  0  0  0  0  0  0  0  0  0  0
   19.2353   18.4960   23.4932 H   0  0  0  0  0  0  0  0  0  0  0  0
   18.9590   19.5459   21.5629 C   0  0  0  0  0  0  0  0  0  0  0  0
   18.7742   20.6150   21.3910 H   0  0  0  0  0  0  0  0  0  0  0  0
   17.9756   19.0574   21.5378 H   0  0  0  0  0  0  0  0  0  0  0  0
   19.8390   18.9941   20.4198 C   0  0  0  0  0  0  0  0  0  0  0  0
   19.3807   19.2548   19.4558 H   0  0  0  0  0  0  0  0  0  0  0  0
   20.8233   19.4820   20.4415 H   0  0  0  0  0  0  0  0  0  0  0  0
   20.0161   17.4626   20.4964 C   0  0  0  0  0  0  0  0  0  0  0  0
   19.0444   16.9528   20.4635 H   0  0  0  0  0  0  0  0  0  0  0  0
   20.6173   17.1010   19.6522 H   0  0  0  0  0  0  0  0  0  0  0  0
   20.5263   17.1687   21.4229 H   0  0  0  0  0  0  0  0  0  0  0  0
  1  2  1  0  0  0  0
  1  3  2  0  0  0  0
  1  4  1  0  0  0  0
  4  5  1  0  0  0  0
  4  6  2  0  0  0  0
  6  7  1  0  0  0  0
  6  8  1  0  0  0  0
  8  9  1  0  0  0  0
  8 10  1  0  0  0  0
  8 11  1  0  0  0  0
 11 12  1  0  0  0  0
 11 13  1  0  0  0  0
 11 14  1  0  0  0  0
 14 15  1  0  0  0  0
 14 16  1  0  0  0  0
 14 17  1  0  0  0  0
M  END
> <VConfSearch Rank>
375

> <Conf_Id>
3

> <Delta U+W>
0.531

> <U+W>
-52.878

> <U>
10.067

> <W>
-62.945

> <W(PB)>
-64.982

> <W(SA)>
2.037

> <Valence>
2.779

> <Coulomb>
6.474

> <VdW>
0.815

> <VdW6>
-5.088

> <VdW12>
5.902

> <Bond>
0.078

> <Angle>
2.651

> <Pdih>
0.050

> <Idih>
0.000

> <Tether>
0.000

$$$$
VeraChem MOL file


 17 16  0  0  0  0  0  0  0  0999 V2000     
   21.2091   21.2189   20.3135 C   0  0  0  0  0  0  0  0  0  0  0  0
   22.1588   21.9473   20.5263 O   0  5  0  0  0  0  0  0  0  0  0  0
   20.3608   21.4671   19.4773 O   0  0  0  0  0  0  0  0  0  0  0  0
   21.1032   19.9739   21.1215 C   0  0  0  0  0  0  0  0  0  0  0  0
   21.8942   19.8133   21.8503 H   0  0  0  0  0  0  0  0  0  0  0  0
   20.1006   19.0751   20.9929 C   0  0  0  0  0  0  0  0  0  0  0  0
   19.3021   19.2301   20.2677 H   0  0  0  0  0  0  0  0  0  0  0  0
   19.9941   17.8099   21.8188 C   0  0  0  0  0  0  0  0  0  0  0  0
   20.9584   17.5726   22.2885 H   0  0  0  0  0  0  0  0  0  0  0  0
   19.7625   16.9666   21.1545 H   0  0  0  0  0  0  0  0  0  0  0  0
   18.8990   17.9083   22.9034 C   0  0  0  0  0  0  0  0  0  0  0  0
   17.9345   18.1482   22.4347 H   0  0  0  0  0  0  0  0  0  0  0  0
   18.7796   16.9267   23.3824 H   0  0  0  0  0  0  0  0  0  0  0  0
   19.2274   18.9592   23.9854 C   0  0  0  0  0  0  0  0  0  0  0  0
   19.2911   19.9662   23.5531 H   0  0  0  0  0  0  0  0  0  0  0  0
   18.4484   18.9738   24.7585 H   0  0  0  0  0  0  0  0  0  0  0  0
   20.1850   18.7345   24.4729 H   0  0  0  0  0  0  0  0  0  0  0  0
  1  2  1  0  0  0  0
  1  3  2  0  0  0  0
  1  4  1  0  0  0  0
  4  5  1  0  0  0  0
  4  6  2  0  0  0  0
  6  7  1  0  0  0  0
  6  8  1  0  0  0  0
  8  9  1  0  0  0  0
  8 10  1  0  0  0  0
  8 11  1  0  0  0  0
 11 12  1  0  0  0  0
 11 13  1  0  0  0  0
 11 14  1  0  0  0  0
 14 15  1  0  0  0  0
 14 16  1  0  0  0  0
 14 17  1  0  0  0  0
M  END
> <VConfSearch Rank>
376

> <Conf_Id>
45

> <Delta U+W>
0.562

> <U+W>
-52.846

> <U>
10.243

> <W>
-63.089

> <W(PB)>
-65.116

> <W(SA)>
2.026

> <Valence>
2.822

> <Coulomb>
6.637

> <VdW>
0.785

> <VdW6>
-5.216

> <VdW12>
6.001

> <Bond>
0.080

> <Angle>
2.678

> <Pdih>
0.064

> <Idih>
0.000

> <Tether>
0.000

$$$$
VeraChem MOL file


 17 16  0  0  0  0  0  0  0  0999 V2000     
   23.1288   19.4608   23.1086 C   0  0  0  0  0  0  0  0  0  0  0  0
   23.9699   18.6086   23.3179 O   0  5  0  0  0  0  0  0  0  0  0  0
   23.2242   20.5998   23.5258 O   0  0  0  0  0  0  0  0  0  0  0  0
   21.9401   19.0704   22.3031 C   0  0  0  0  0  0  0  0  0  0  0  0
   21.9168   18.0382   21.9611 H   0  0  0  0  0  0  0  0  0  0  0  0
   20.9286   19.9135   21.9948 C   0  0  0  0  0  0  0  0  0  0  0  0
   20.9407   20.9491   22.3343 H   0  0  0  0  0  0  0  0  0  0  0  0
   19.7221   19.5078   21.1768 C   0  0  0  0  0  0  0  0  0  0  0  0
   20.0271   18.8286   20.3691 H   0  0  0  0  0  0  0  0  0  0  0  0
   19.2906   20.3945   20.6932 H   0  0  0  0  0  0  0  0  0  0  0  0
   18.6520   18.8262   22.0539 C   0  0  0  0  0  0  0  0  0  0  0  0
   19.0810   17.9363   22.5353 H   0  0  0  0  0  0  0  0  0  0  0  0
   18.3471   19.5082   22.8598 H   0  0  0  0  0  0  0  0  0  0  0  0
   17.4147   18.4180   21.2292 C   0  0  0  0  0  0  0  0  0  0  0  0
   16.9471   19.2947   20.7622 H   0  0  0  0  0  0  0  0  0  0  0  0
   17.6879   17.7110   20.4349 H   0  0  0  0  0  0  0  0  0  0  0  0
   16.6652   17.9351   21.8696 H   0  0  0  0  0  0  0  0  0  0  0  0
  1  2  1  0  0  0  0
  1  3  2  0  0  0  0
  1  4  1  0  0  0  0
  4  5  1  0  0  0  0
  4  6  2  0  0  0  0
  6  7  1  0  0  0  0
  6  8  1  0  0  0  0
  8  9  1  0  0  0  0
  8 10  1  0  0  0  0
  8 11  1  0  0  0  0
 11 12  1  0  0  0  0
 11 13  1  0  0  0  0
 11 14  1  0  0  0  0
 14 15  1  0  0  0  0
 14 16  1  0  0  0  0
 14 17  1  0  0  0  0
M  END
> <VConfSearch Rank>
377

> <Conf_Id>
36

> <Delta U+W>
0.000

> <U+W>
-53.409

> <U>
9.048

> <W>
-62.457

> <W(PB)>
-64.540

> <W(SA)>
2.084

> <Valence>
2.652

> <Coulomb>
5.578

> <VdW>
0.818

> <VdW6>
-4.534

> <VdW12>
5.352

> <Bond>
0.063

> <Angle>
2.579

> <Pdih>
0.010

> <Idih>
0.000

> <Tether>
0.000

$$$$
VeraChem MOL file


 17 16  0  0  0  0  0  0  0  0999 V2000     
   18.4356   17.1245   24.1519 C   0  0  0  0  0  0  0  0  0  0  0  0
   19.2700   16.3606   24.5997 O   0  5  0  0  0  0  0  0  0  0  0  0
   17.2444   16.9952   24.3574 O   0  0  0  0  0  0  0  0  0  0  0  0
   18.8677   18.2758   23.3141 C   0  0  0  0  0  0  0  0  0  0  0  0
   18.0723   18.9197   22.9457 H   0  0  0  0  0  0  0  0  0  0  0  0
   20.1573   18.5403   23.0040 C   0  0  0  0  0  0  0  0  0  0  0  0
   20.9619   17.9006   23.3660 H   0  0  0  0  0  0  0  0  0  0  0  0
   20.5881   19.7124   22.1497 C   0  0  0  0  0  0  0  0  0  0  0  0
   21.6250   19.9822   22.3914 H   0  0  0  0  0  0  0  0  0  0  0  0
   19.9738   20.5928   22.3826 H   0  0  0  0  0  0  0  0  0  0  0  0
   20.4774   19.3832   20.6469 C   0  0  0  0  0  0  0  0  0  0  0  0
   21.0944   18.5037   20.4161 H   0  0  0  0  0  0  0  0  0  0  0  0
   19.4396   19.1170   20.4026 H   0  0  0  0  0  0  0  0  0  0  0  0
   20.9236   20.5698   19.7693 C   0  0  0  0  0  0  0  0  0  0  0  0
   21.9693   20.8365   19.9711 H   0  0  0  0  0  0  0  0  0  0  0  0
   20.8379   20.3170   18.7044 H   0  0  0  0  0  0  0  0  0  0  0  0
   20.3013   21.4543   19.9587 H   0  0  0  0  0  0  0  0  0  0  0  0
  1  2  1  0  0  0  0
  1  3  2  0  0  0  0
  1  4  1  0  0  0  0
  4  5  1  0  0  0  0
  4  6  2  0  0  0  0
  6  7  1  0  0  0  0
  6  8  1  0  0  0  0
  8  9  1  0  0  0  0
  8 10  1  0  0  0  0
  8 11  1  0  0  0  0
 11 12  1  0  0  0  0
 11 13  1  0  0  0  0
 11 14  1  0  0  0  0
 14 15  1  0  0  0  0
 14 16  1  0  0  0  0
 14 17  1  0  0  0  0
M  END
> <VConfSearch Rank>
378

> <Conf_Id>
1

> <Delta U+W>
0.030

> <U+W>
-53.378

> <U>
9.048

> <W>
-62.426

> <W(PB)>
-64.506

> <W(SA)>
2.080

> <Valence>
2.652

> <Coulomb>
5.578

> <VdW>
0.818

> <VdW6>
-4.535

> <VdW12>
5.352

> <Bond>
0.063

> <Angle>
2.579

> <Pdih>
0.010

> <Idih>
0.000

> <Tether>
0.000

$$$$
VeraChem MOL file


 17 16  0  0  0  0  0  0  0  0999 V2000     
   21.3361   17.5912   19.7011 C   0  0  0  0  0  0  0  0  0  0  0  0
   22.4377   17.3749   20.1703 O   0  5  0  0  0  0  0  0  0  0  0  0
   20.9147   17.0183   18.7152 O   0  0  0  0  0  0  0  0  0  0  0  0
   20.4488   18.5991   20.3421 C   0  0  0  0  0  0  0  0  0  0  0  0
   19.4788   18.7447   19.8723 H   0  0  0  0  0  0  0  0  0  0  0  0
   20.7864   19.3092   21.4424 C   0  0  0  0  0  0  0  0  0  0  0  0
   21.7544   19.1689   21.9230 H   0  0  0  0  0  0  0  0  0  0  0  0
   19.8764   20.3307   22.0916 C   0  0  0  0  0  0  0  0  0  0  0  0
   19.3684   20.9179   21.3146 H   0  0  0  0  0  0  0  0  0  0  0  0
   20.4735   21.0453   22.6740 H   0  0  0  0  0  0  0  0  0  0  0  0
   18.8170   19.6770   23.0059 C   0  0  0  0  0  0  0  0  0  0  0  0
   18.1240   20.4511   23.3631 H   0  0  0  0  0  0  0  0  0  0  0  0
   18.2171   18.9623   22.4256 H   0  0  0  0  0  0  0  0  0  0  0  0
   19.4449   18.9622   24.2215 C   0  0  0  0  0  0  0  0  0  0  0  0
   20.0397   19.6612   24.8239 H   0  0  0  0  0  0  0  0  0  0  0  0
   18.6637   18.5390   24.8661 H   0  0  0  0  0  0  0  0  0  0  0  0
   20.0999   18.1407   23.9031 H   0  0  0  0  0  0  0  0  0  0  0  0
  1  2  1  0  0  0  0
  1  3  2  0  0  0  0
  1  4  1  0  0  0  0
  4  5  1  0  0  0  0
  4  6  2  0  0  0  0
  6  7  1  0  0  0  0
  6  8  1  0  0  0  0
  8  9  1  0  0  0  0
  8 10  1  0  0  0  0
  8 11  1  0  0  0  0
 11 12  1  0  0  0  0
 11 13  1  0  0  0  0
 11 14  1  0  0  0  0
 14 15  1  0  0  0  0
 14 16  1  0  0  0  0
 14 17  1  0  0  0  0
M  END
> <VConfSearch Rank>
379

> <Conf_Id>
3

> <Delta U+W>
0.531

> <U+W>
-52.878

> <U>
10.067

> <W>
-62.945

> <W(PB)>
-64.982

> <W(SA)>
2.037

> <Valence>
2.779

> <Coulomb>
6.474

> <VdW>
0.815

> <VdW6>
-5.088

> <VdW12>
5.902

> <Bond>
0.078

> <Angle>
2.651

> <Pdih>
0.050

> <Idih>
0.000

> <Tether>
0.000

$$$$
VeraChem MOL file


 17 16  0  0  0  0  0  0  0  0999 V2000     
   21.2152   17.3569   24.2093 C   0  0  0  0  0  0  0  0  0  0  0  0
   21.2344   17.5050   25.4157 O   0  5  0  0  0  0  0  0  0  0  0  0
   22.0092   16.6494   23.6181 O   0  0  0  0  0  0  0  0  0  0  0  0
   20.1635   18.0804   23.4447 C   0  0  0  0  0  0  0  0  0  0  0  0
   19.4871   18.6948   24.0343 H   0  0  0  0  0  0  0  0  0  0  0  0
   20.0258   18.0099   22.1009 C   0  0  0  0  0  0  0  0  0  0  0  0
   20.7015   17.3996   21.5022 H   0  0  0  0  0  0  0  0  0  0  0  0
   18.9558   18.7498   21.3250 C   0  0  0  0  0  0  0  0  0  0  0  0
   18.1515   19.0811   21.9959 H   0  0  0  0  0  0  0  0  0  0  0  0
   18.4908   18.0596   20.6085 H   0  0  0  0  0  0  0  0  0  0  0  0
   19.5227   19.9631   20.5559 C   0  0  0  0  0  0  0  0  0  0  0  0
   20.3292   19.6329   19.8865 H   0  0  0  0  0  0  0  0  0  0  0  0
   18.7345   20.3814   19.9149 H   0  0  0  0  0  0  0  0  0  0  0  0
   20.0468   21.0700   21.4956 C   0  0  0  0  0  0  0  0  0  0  0  0
   20.8816   20.7065   22.1088 H   0  0  0  0  0  0  0  0  0  0  0  0
   20.4050   21.9307   20.9162 H   0  0  0  0  0  0  0  0  0  0  0  0
   19.2542   21.4207   22.1693 H   0  0  0  0  0  0  0  0  0  0  0  0
  1  2  1  0  0  0  0
  1  3  2  0  0  0  0
  1  4  1  0  0  0  0
  4  5  1  0  0  0  0
  4  6  2  0  0  0  0
  6  7  1  0  0  0  0
  6  8  1  0  0  0  0
  8  9  1  0  0  0  0
  8 10  1  0  0  0  0
  8 11  1  0  0  0  0
 11 12  1  0  0  0  0
 11 13  1  0  0  0  0
 11 14  1  0  0  0  0
 14 15  1  0  0  0  0
 14 16  1  0  0  0  0
 14 17  1  0  0  0  0
M  END
> <VConfSearch Rank>
380

> <Conf_Id>
45

> <Delta U+W>
0.562

> <U+W>
-52.846

> <U>
10.243

> <W>
-63.089

> <W(PB)>
-65.116

> <W(SA)>
2.026

> <Valence>
2.822

> <Coulomb>
6.637

> <VdW>
0.785

> <VdW6>
-5.216

> <VdW12>
6.001

> <Bond>
0.080

> <Angle>
2.678

> <Pdih>
0.064

> <Idih>
0.000

> <Tether>
0.000

$$$$
VeraChem MOL file


 17 16  0  0  0  0  0  0  0  0999 V2000     
   18.3292   19.0496   18.9802 C   0  0  0  0  0  0  0  0  0  0  0  0
   17.6458   18.1643   18.5036 O   0  5  0  0  0  0  0  0  0  0  0  0
   18.7106   20.0089   18.3363 O   0  0  0  0  0  0  0  0  0  0  0  0
   18.7015   18.9332   20.4161 C   0  0  0  0  0  0  0  0  0  0  0  0
   18.3283   18.0522   20.9333 H   0  0  0  0  0  0  0  0  0  0  0  0
   19.4565   19.8415   21.0750 C   0  0  0  0  0  0  0  0  0  0  0  0
   19.8375   20.7266   20.5659 H   0  0  0  0  0  0  0  0  0  0  0  0
   19.8325   19.7145   22.5351 C   0  0  0  0  0  0  0  0  0  0  0  0
   18.9875   19.3065   23.1064 H   0  0  0  0  0  0  0  0  0  0  0  0
   20.0381   20.7106   22.9498 H   0  0  0  0  0  0  0  0  0  0  0  0
   21.0699   18.8127   22.7203 C   0  0  0  0  0  0  0  0  0  0  0  0
   20.8643   17.8144   22.3096 H   0  0  0  0  0  0  0  0  0  0  0  0
   21.9142   19.2239   22.1496 H   0  0  0  0  0  0  0  0  0  0  0  0
   21.4654   18.6858   24.2052 C   0  0  0  0  0  0  0  0  0  0  0  0
   21.7074   19.6677   24.6328 H   0  0  0  0  0  0  0  0  0  0  0  0
   20.6483   18.2476   24.7933 H   0  0  0  0  0  0  0  0  0  0  0  0
   22.3468   18.0410   24.3170 H   0  0  0  0  0  0  0  0  0  0  0  0
  1  2  1  0  0  0  0
  1  3  2  0  0  0  0
  1  4  1  0  0  0  0
  4  5  1  0  0  0  0
  4  6  2  0  0  0  0
  6  7  1  0  0  0  0
  6  8  1  0  0  0  0
  8  9  1  0  0  0  0
  8 10  1  0  0  0  0
  8 11  1  0  0  0  0
 11 12  1  0  0  0  0
 11 13  1  0  0  0  0
 11 14  1  0  0  0  0
 14 15  1  0  0  0  0
 14 16  1  0  0  0  0
 14 17  1  0  0  0  0
M  END
> <VConfSearch Rank>
381

> <Conf_Id>
36

> <Delta U+W>
0.000

> <U+W>
-53.409

> <U>
9.048

> <W>
-62.457

> <W(PB)>
-64.540

> <W(SA)>
2.084

> <Valence>
2.652

> <Coulomb>
5.578

> <VdW>
0.818

> <VdW6>
-4.534

> <VdW12>
5.352

> <Bond>
0.063

> <Angle>
2.579

> <Pdih>
0.010

> <Idih>
0.000

> <Tether>
0.000

$$$$
VeraChem MOL file


 17 16  0  0  0  0  0  0  0  0999 V2000     
   20.6964   17.3446   24.7162 C   0  0  0  0  0  0  0  0  0  0  0  0
   20.1058   16.2849   24.6231 O   0  5  0  0  0  0  0  0  0  0  0  0
   21.2275   17.7162   25.7446 O   0  0  0  0  0  0  0  0  0  0  0  0
   20.7873   18.2417   23.5325 C   0  0  0  0  0  0  0  0  0  0  0  0
   21.3288   19.1729   23.6831 H   0  0  0  0  0  0  0  0  0  0  0  0
   20.2436   17.9569   22.3274 C   0  0  0  0  0  0  0  0  0  0  0  0
   19.6972   17.0278   22.1660 H   0  0  0  0  0  0  0  0  0  0  0  0
   20.3390   18.8756   21.1290 C   0  0  0  0  0  0  0  0  0  0  0  0
   20.2390   18.2883   20.2063 H   0  0  0  0  0  0  0  0  0  0  0  0
   21.3313   19.3457   21.0943 H   0  0  0  0  0  0  0  0  0  0  0  0
   19.2480   19.9652   21.1680 C   0  0  0  0  0  0  0  0  0  0  0  0
   18.2565   19.4927   21.2005 H   0  0  0  0  0  0  0  0  0  0  0  0
   19.3492   20.5565   22.0887 H   0  0  0  0  0  0  0  0  0  0  0  0
   19.3328   20.9004   19.9449 C   0  0  0  0  0  0  0  0  0  0  0  0
   19.2028   20.3384   19.0107 H   0  0  0  0  0  0  0  0  0  0  0  0
   18.5495   21.6682   19.9902 H   0  0  0  0  0  0  0  0  0  0  0  0
   20.3047   21.4097   19.9064 H   0  0  0  0  0  0  0  0  0  0  0  0
  1  2  1  0  0  0  0
  1  3  2  0  0  0  0
  1  4  1  0  0  0  0
  4  5  1  0  0  0  0
  4  6  2  0  0  0  0
  6  7  1  0  0  0  0
  6  8  1  0  0  0  0
  8  9  1  0  0  0  0
  8 10  1  0  0  0  0
  8 11  1  0  0  0  0
 11 12  1  0  0  0  0
 11 13  1  0  0  0  0
 11 14  1  0  0  0  0
 14 15  1  0  0  0  0
 14 16  1  0  0  0  0
 14 17  1  0  0  0  0
M  END
> <VConfSearch Rank>
382

> <Conf_Id>
1

> <Delta U+W>
0.030

> <U+W>
-53.378

> <U>
9.048

> <W>
-62.426

> <W(PB)>
-64.506

> <W(SA)>
2.080

> <Valence>
2.652

> <Coulomb>
5.578

> <VdW>
0.818

> <VdW6>
-4.535

> <VdW12>
5.352

> <Bond>
0.063

> <Angle>
2.579

> <Pdih>
0.010

> <Idih>
0.000

> <Tether>
0.000

$$$$
VeraChem MOL file


 17 16  0  0  0  0  0  0  0  0999 V2000     
   19.9632   21.3127   19.9178 C   0  0  0  0  0  0  0  0  0  0  0  0
   20.1860   22.2868   20.6120 O   0  5  0  0  0  0  0  0  0  0  0  0
   20.0591   21.3300   18.7061 O   0  0  0  0  0  0  0  0  0  0  0  0
   19.5503   20.0336   20.5563 C   0  0  0  0  0  0  0  0  0  0  0  0
   19.3659   19.2028   19.8791 H   0  0  0  0  0  0  0  0  0  0  0  0
   19.4049   19.8700   21.8909 C   0  0  0  0  0  0  0  0  0  0  0  0
   19.5904   20.6947   22.5787 H   0  0  0  0  0  0  0  0  0  0  0  0
   18.9881   18.5639   22.5339 C   0  0  0  0  0  0  0  0  0  0  0  0
   18.1978   18.0935   21.9334 H   0  0  0  0  0  0  0  0  0  0  0  0
   18.5479   18.7581   23.5212 H   0  0  0  0  0  0  0  0  0  0  0  0
   20.1680   17.5778   22.6796 C   0  0  0  0  0  0  0  0  0  0  0  0
   19.7885   16.6161   23.0514 H   0  0  0  0  0  0  0  0  0  0  0  0
   20.6098   17.3806   21.6930 H   0  0  0  0  0  0  0  0  0  0  0  0
   21.2570   18.0968   23.6426 C   0  0  0  0  0  0  0  0  0  0  0  0
   20.8401   18.2891   24.6398 H   0  0  0  0  0  0  0  0  0  0  0  0
   22.0622   17.3583   23.7485 H   0  0  0  0  0  0  0  0  0  0  0  0
   21.7023   19.0291   23.2715 H   0  0  0  0  0  0  0  0  0  0  0  0
  1  2  1  0  0  0  0
  1  3  2  0  0  0  0
  1  4  1  0  0  0  0
  4  5  1  0  0  0  0
  4  6  2  0  0  0  0
  6  7  1  0  0  0  0
  6  8  1  0  0  0  0
  8  9  1  0  0  0  0
  8 10  1  0  0  0  0
  8 11  1  0  0  0  0
 11 12  1  0  0  0  0
 11 13  1  0  0  0  0
 11 14  1  0  0  0  0
 14 15  1  0  0  0  0
 14 16  1  0  0  0  0
 14 17  1  0  0  0  0
M  END
> <VConfSearch Rank>
383

> <Conf_Id>
3

> <Delta U+W>
0.531

> <U+W>
-52.878

> <U>
10.067

> <W>
-62.945

> <W(PB)>
-64.982

> <W(SA)>
2.037

> <Valence>
2.779

> <Coulomb>
6.474

> <VdW>
0.815

> <VdW6>
-5.088

> <VdW12>
5.902

> <Bond>
0.078

> <Angle>
2.651

> <Pdih>
0.050

> <Idih>
0.000

> <Tether>
0.000

$$$$
VeraChem MOL file


 17 16  0  0  0  0  0  0  0  0999 V2000     
   22.1906   20.7316   20.8299 C   0  0  0  0  0  0  0  0  0  0  0  0
   23.3180   20.3988   20.5200 O   0  5  0  0  0  0  0  0  0  0  0  0
   21.8720   21.8910   21.0158 O   0  0  0  0  0  0  0  0  0  0  0  0
   21.1731   19.6562   20.9790 C   0  0  0  0  0  0  0  0  0  0  0  0
   21.5245   18.6430   20.7986 H   0  0  0  0  0  0  0  0  0  0  0  0
   19.8838   19.8809   21.3210 C   0  0  0  0  0  0  0  0  0  0  0  0
   19.5243   20.8927   21.5072 H   0  0  0  0  0  0  0  0  0  0  0  0
   18.8509   18.7838   21.4748 C   0  0  0  0  0  0  0  0  0  0  0  0
   19.1918   17.8608   20.9863 H   0  0  0  0  0  0  0  0  0  0  0  0
   17.9308   19.0824   20.9548 H   0  0  0  0  0  0  0  0  0  0  0  0
   18.5184   18.4951   22.9551 C   0  0  0  0  0  0  0  0  0  0  0  0
   18.1797   19.4185   23.4452 H   0  0  0  0  0  0  0  0  0  0  0  0
   17.6784   17.7885   23.0026 H   0  0  0  0  0  0  0  0  0  0  0  0
   19.7166   17.9047   23.7288 C   0  0  0  0  0  0  0  0  0  0  0  0
   20.5561   18.6114   23.7583 H   0  0  0  0  0  0  0  0  0  0  0  0
   19.4328   17.6762   24.7642 H   0  0  0  0  0  0  0  0  0  0  0  0
   20.0671   16.9759   23.2603 H   0  0  0  0  0  0  0  0  0  0  0  0
  1  2  1  0  0  0  0
  1  3  2  0  0  0  0
  1  4  1  0  0  0  0
  4  5  1  0  0  0  0
  4  6  2  0  0  0  0
  6  7  1  0  0  0  0
  6  8  1  0  0  0  0
  8  9  1  0  0  0  0
  8 10  1  0  0  0  0
  8 11  1  0  0  0  0
 11 12  1  0  0  0  0
 11 13  1  0  0  0  0
 11 14  1  0  0  0  0
 14 15  1  0  0  0  0
 14 16  1  0  0  0  0
 14 17  1  0  0  0  0
M  END
> <VConfSearch Rank>
384

> <Conf_Id>
45

> <Delta U+W>
0.562

> <U+W>
-52.846

> <U>
10.243

> <W>
-63.089

> <W(PB)>
-65.116

> <W(SA)>
2.026

> <Valence>
2.822

> <Coulomb>
6.637

> <VdW>
0.785

> <VdW6>
-5.216

> <VdW12>
6.001

> <Bond>
0.080

> <Angle>
2.678

> <Pdih>
0.064

> <Idih>
0.000

> <Tether>
0.000

$$$$
VeraChem MOL file


 17 16  0  0  0  0  0  0  0  0999 V2000     
   18.2221   20.7599   19.5589 C   0  0  0  0  0  0  0  0  0  0  0  0
   18.5750   21.1493   18.4627 O   0  5  0  0  0  0  0  0  0  0  0  0
   17.1834   21.1156   20.0834 O   0  0  0  0  0  0  0  0  0  0  0  0
   19.1155   19.8060   20.2702 C   0  0  0  0  0  0  0  0  0  0  0  0
   20.0274   19.5291   19.7462 H   0  0  0  0  0  0  0  0  0  0  0  0
   18.8498   19.2933   21.4931 C   0  0  0  0  0  0  0  0  0  0  0  0
   17.9402   19.5658   22.0280 H   0  0  0  0  0  0  0  0  0  0  0  0
   19.7648   18.3252   22.2106 C   0  0  0  0  0  0  0  0  0  0  0  0
   20.2011   17.6180   21.4920 H   0  0  0  0  0  0  0  0  0  0  0  0
   19.1812   17.7267   22.9230 H   0  0  0  0  0  0  0  0  0  0  0  0
   20.8907   19.0667   22.9601 C   0  0  0  0  0  0  0  0  0  0  0  0
   21.4782   19.6628   22.2480 H   0  0  0  0  0  0  0  0  0  0  0  0
   20.4519   19.7719   23.6796 H   0  0  0  0  0  0  0  0  0  0  0  0
   21.8224   18.0874   23.7019 C   0  0  0  0  0  0  0  0  0  0  0  0
   21.2652   17.5003   24.4436 H   0  0  0  0  0  0  0  0  0  0  0  0
   22.2986   17.3902   23.0000 H   0  0  0  0  0  0  0  0  0  0  0  0
   22.6163   18.6328   24.2286 H   0  0  0  0  0  0  0  0  0  0  0  0
  1  2  1  0  0  0  0
  1  3  2  0  0  0  0
  1  4  1  0  0  0  0
  4  5  1  0  0  0  0
  4  6  2  0  0  0  0
  6  7  1  0  0  0  0
  6  8  1  0  0  0  0
  8  9  1  0  0  0  0
  8 10  1  0  0  0  0
  8 11  1  0  0  0  0
 11 12  1  0  0  0  0
 11 13  1  0  0  0  0
 11 14  1  0  0  0  0
 14 15  1  0  0  0  0
 14 16  1  0  0  0  0
 14 17  1  0  0  0  0
M  END
> <VConfSearch Rank>
385

> <Conf_Id>
36

> <Delta U+W>
0.000

> <U+W>
-53.409

> <U>
9.048

> <W>
-62.457

> <W(PB)>
-64.540

> <W(SA)>
2.084

> <Valence>
2.652

> <Coulomb>
5.578

> <VdW>
0.818

> <VdW6>
-4.534

> <VdW12>
5.352

> <Bond>
0.063

> <Angle>
2.579

> <Pdih>
0.010

> <Idih>
0.000

> <Tether>
0.000

$$$$
VeraChem MOL file


 17 16  0  0  0  0  0  0  0  0999 V2000     
   17.1719   17.8075   23.1967 C   0  0  0  0  0  0  0  0  0  0  0  0
   16.2585   18.5076   22.8018 O   0  5  0  0  0  0  0  0  0  0  0  0
   17.0305   16.9622   24.0588 O   0  0  0  0  0  0  0  0  0  0  0  0
   18.5305   17.9736   22.6130 C   0  0  0  0  0  0  0  0  0  0  0  0
   19.3012   17.3169   23.0100 H   0  0  0  0  0  0  0  0  0  0  0  0
   18.8320   18.8736   21.6496 C   0  0  0  0  0  0  0  0  0  0  0  0
   18.0680   19.5380   21.2462 H   0  0  0  0  0  0  0  0  0  0  0  0
   20.2169   19.0374   21.0625 C   0  0  0  0  0  0  0  0  0  0  0  0
   20.1405   19.4648   20.0536 H   0  0  0  0  0  0  0  0  0  0  0  0
   20.6959   18.0552   20.9504 H   0  0  0  0  0  0  0  0  0  0  0  0
   21.0966   19.9480   21.9435 C   0  0  0  0  0  0  0  0  0  0  0  0
   20.6165   20.9304   22.0524 H   0  0  0  0  0  0  0  0  0  0  0  0
   21.1774   19.5196   22.9523 H   0  0  0  0  0  0  0  0  0  0  0  0
   22.5071   20.1275   21.3471 C   0  0  0  0  0  0  0  0  0  0  0  0
   22.4570   20.5840   20.3499 H   0  0  0  0  0  0  0  0  0  0  0  0
   23.1177   20.7777   21.9871 H   0  0  0  0  0  0  0  0  0  0  0  0
   23.0212   19.1616   21.2567 H   0  0  0  0  0  0  0  0  0  0  0  0
  1  2  1  0  0  0  0
  1  3  2  0  0  0  0
  1  4  1  0  0  0  0
  4  5  1  0  0  0  0
  4  6  2  0  0  0  0
  6  7  1  0  0  0  0
  6  8  1  0  0  0  0
  8  9  1  0  0  0  0
  8 10  1  0  0  0  0
  8 11  1  0  0  0  0
 11 12  1  0  0  0  0
 11 13  1  0  0  0  0
 11 14  1  0  0  0  0
 14 15  1  0  0  0  0
 14 16  1  0  0  0  0
 14 17  1  0  0  0  0
M  END
> <VConfSearch Rank>
386

> <Conf_Id>
1

> <Delta U+W>
0.030

> <U+W>
-53.378

> <U>
9.048

> <W>
-62.426

> <W(PB)>
-64.506

> <W(SA)>
2.080

> <Valence>
2.652

> <Coulomb>
5.578

> <VdW>
0.818

> <VdW6>
-4.535

> <VdW12>
5.352

> <Bond>
0.063

> <Angle>
2.579

> <Pdih>
0.010

> <Idih>
0.000

> <Tether>
0.000

$$$$
VeraChem MOL file


 17 16  0  0  0  0  0  0  0  0999 V2000     
   18.6874   17.8896   24.5599 C   0  0  0  0  0  0  0  0  0  0  0  0
   17.5957   18.4240   24.5058 O   0  5  0  0  0  0  0  0  0  0  0  0
   18.9155   16.9244   25.2628 O   0  0  0  0  0  0  0  0  0  0  0  0
   19.8093   18.4245   23.7417 C   0  0  0  0  0  0  0  0  0  0  0  0
   20.7580   17.9014   23.8373 H   0  0  0  0  0  0  0  0  0  0  0  0
   19.6987   19.4896   22.9157 C   0  0  0  0  0  0  0  0  0  0  0  0
   18.7520   20.0189   22.8098 H   0  0  0  0  0  0  0  0  0  0  0  0
   20.8441   20.0260   22.0831 C   0  0  0  0  0  0  0  0  0  0  0  0
   21.7693   20.0088   22.6749 H   0  0  0  0  0  0  0  0  0  0  0  0
   20.6610   21.0793   21.8317 H   0  0  0  0  0  0  0  0  0  0  0  0
   21.0578   19.2152   20.7860 C   0  0  0  0  0  0  0  0  0  0  0  0
   21.9611   19.5808   20.2786 H   0  0  0  0  0  0  0  0  0  0  0  0
   21.2425   18.1608   21.0344 H   0  0  0  0  0  0  0  0  0  0  0  0
   19.8590   19.3192   19.8192 C   0  0  0  0  0  0  0  0  0  0  0  0
   19.6637   20.3645   19.5469 H   0  0  0  0  0  0  0  0  0  0  0  0
   20.0583   18.7599   18.8959 H   0  0  0  0  0  0  0  0  0  0  0  0
   18.9479   18.9069   20.2722 H   0  0  0  0  0  0  0  0  0  0  0  0
  1  2  1  0  0  0  0
  1  3  2  0  0  0  0
  1  4  1  0  0  0  0
  4  5  1  0  0  0  0
  4  6  2  0  0  0  0
  6  7  1  0  0  0  0
  6  8  1  0  0  0  0
  8  9  1  0  0  0  0
  8 10  1  0  0  0  0
  8 11  1  0  0  0  0
 11 12  1  0  0  0  0
 11 13  1  0  0  0  0
 11 14  1  0  0  0  0
 14 15  1  0  0  0  0
 14 16  1  0  0  0  0
 14 17  1  0  0  0  0
M  END
> <VConfSearch Rank>
387

> <Conf_Id>
3

> <Delta U+W>
0.531

> <U+W>
-52.878

> <U>
10.067

> <W>
-62.945

> <W(PB)>
-64.982

> <W(SA)>
2.037

> <Valence>
2.779

> <Coulomb>
6.474

> <VdW>
0.815

> <VdW6>
-5.088

> <VdW12>
5.902

> <Bond>
0.078

> <Angle>
2.651

> <Pdih>
0.050

> <Idih>
0.000

> <Tether>
0.000

$$$$
VeraChem MOL file


 17 16  0  0  0  0  0  0  0  0999 V2000     
   18.3795   20.6131   20.0089 C   0  0  0  0  0  0  0  0  0  0  0  0
   18.2338   20.3856   18.8237 O   0  5  0  0  0  0  0  0  0  0  0  0
   18.1855   21.7096   20.4995 O   0  0  0  0  0  0  0  0  0  0  0  0
   18.8112   19.4848   20.8775 C   0  0  0  0  0  0  0  0  0  0  0  0
   18.9667   18.5328   20.3753 H   0  0  0  0  0  0  0  0  0  0  0  0
   19.0141   19.5946   22.2103 C   0  0  0  0  0  0  0  0  0  0  0  0
   18.8642   20.5456   22.7208 H   0  0  0  0  0  0  0  0  0  0  0  0
   19.4563   18.4447   23.0915 C   0  0  0  0  0  0  0  0  0  0  0  0
   19.2908   17.4840   22.5851 H   0  0  0  0  0  0  0  0  0  0  0  0
   18.8324   18.4250   23.9950 H   0  0  0  0  0  0  0  0  0  0  0  0
   20.9385   18.5625   23.5090 C   0  0  0  0  0  0  0  0  0  0  0  0
   21.1056   19.5244   24.0132 H   0  0  0  0  0  0  0  0  0  0  0  0
   21.1672   17.7788   24.2443 H   0  0  0  0  0  0  0  0  0  0  0  0
   21.9050   18.4273   22.3129 C   0  0  0  0  0  0  0  0  0  0  0  0
   21.7495   19.2339   21.5848 H   0  0  0  0  0  0  0  0  0  0  0  0
   22.9479   18.4766   22.6518 H   0  0  0  0  0  0  0  0  0  0  0  0
   21.7606   17.4686   21.7980 H   0  0  0  0  0  0  0  0  0  0  0  0
  1  2  1  0  0  0  0
  1  3  2  0  0  0  0
  1  4  1  0  0  0  0
  4  5  1  0  0  0  0
  4  6  2  0  0  0  0
  6  7  1  0  0  0  0
  6  8  1  0  0  0  0
  8  9  1  0  0  0  0
  8 10  1  0  0  0  0
  8 11  1  0  0  0  0
 11 12  1  0  0  0  0
 11 13  1  0  0  0  0
 11 14  1  0  0  0  0
 14 15  1  0  0  0  0
 14 16  1  0  0  0  0
 14 17  1  0  0  0  0
M  END
> <VConfSearch Rank>
388

> <Conf_Id>
45

> <Delta U+W>
0.562

> <U+W>
-52.846

> <U>
10.243

> <W>
-63.089

> <W(PB)>
-65.116

> <W(SA)>
2.026

> <Valence>
2.822

> <Coulomb>
6.637

> <VdW>
0.785

> <VdW6>
-5.216

> <VdW12>
6.001

> <Bond>
0.080

> <Angle>
2.678

> <Pdih>
0.064

> <Idih>
0.000

> <Tether>
0.000

$$$$
VeraChem MOL file


 17 16  0  0  0  0  0  0  0  0999 V2000     
   20.7627   16.8297   24.2695 C   0  0  0  0  0  0  0  0  0  0  0  0
   21.8443   16.3556   24.5574 O   0  5  0  0  0  0  0  0  0  0  0  0
   19.7106   16.3632   24.6646 O   0  0  0  0  0  0  0  0  0  0  0  0
   20.7504   18.0340   23.3956 C   0  0  0  0  0  0  0  0  0  0  0  0
   21.7242   18.3997   23.0779 H   0  0  0  0  0  0  0  0  0  0  0  0
   19.6223   18.6636   22.9957 C   0  0  0  0  0  0  0  0  0  0  0  0
   18.6414   18.3042   23.3062 H   0  0  0  0  0  0  0  0  0  0  0  0
   19.6185   19.8867   22.1050 C   0  0  0  0  0  0  0  0  0  0  0  0
   20.4535   20.5486   22.3724 H   0  0  0  0  0  0  0  0  0  0  0  0
   18.6978   20.4615   22.2735 H   0  0  0  0  0  0  0  0  0  0  0  0
   19.7189   19.4977   20.6159 C   0  0  0  0  0  0  0  0  0  0  0  0
   20.6417   18.9260   20.4449 H   0  0  0  0  0  0  0  0  0  0  0  0
   18.8817   18.8373   20.3504 H   0  0  0  0  0  0  0  0  0  0  0  0
   19.7062   20.7385   19.7007 C   0  0  0  0  0  0  0  0  0  0  0  0
   18.7786   21.3118   19.8287 H   0  0  0  0  0  0  0  0  0  0  0  0
   20.5525   21.4009   19.9252 H   0  0  0  0  0  0  0  0  0  0  0  0
   19.7785   20.4421   18.6461 H   0  0  0  0  0  0  0  0  0  0  0  0
  1  2  1  0  0  0  0
  1  3  2  0  0  0  0
  1  4  1  0  0  0  0
  4  5  1  0  0  0  0
  4  6  2  0  0  0  0
  6  7  1  0  0  0  0
  6  8  1  0  0  0  0
  8  9  1  0  0  0  0
  8 10  1  0  0  0  0
  8 11  1  0  0  0  0
 11 12  1  0  0  0  0
 11 13  1  0  0  0  0
 11 14  1  0  0  0  0
 14 15  1  0  0  0  0
 14 16  1  0  0  0  0
 14 17  1  0  0  0  0
M  END
> <VConfSearch Rank>
389

> <Conf_Id>
36

> <Delta U+W>
0.000

> <U+W>
-53.409

> <U>
9.048

> <W>
-62.457

> <W(PB)>
-64.540

> <W(SA)>
2.084

> <Valence>
2.652

> <Coulomb>
5.578

> <VdW>
0.818

> <VdW6>
-4.534

> <VdW12>
5.352

> <Bond>
0.063

> <Angle>
2.579

> <Pdih>
0.010

> <Idih>
0.000

> <Tether>
0.000

$$$$
VeraChem MOL file


 17 16  0  0  0  0  0  0  0  0999 V2000     
   19.3043   21.8556   20.1128 C   0  0  0  0  0  0  0  0  0  0  0  0
   20.1312   22.6955   20.4147 O   0  5  0  0  0  0  0  0  0  0  0  0
   18.3170   22.1096   19.4506 O   0  0  0  0  0  0  0  0  0  0  0  0
   19.4884   20.4486   20.5607 C   0  0  0  0  0  0  0  0  0  0  0  0
   18.7135   19.7486   20.2568 H   0  0  0  0  0  0  0  0  0  0  0  0
   20.5371   20.0248   21.3021 C   0  0  0  0  0  0  0  0  0  0  0  0
   21.3180   20.7182   21.6139 H   0  0  0  0  0  0  0  0  0  0  0  0
   20.7159   18.5923   21.7552 C   0  0  0  0  0  0  0  0  0  0  0  0
   21.7813   18.3931   21.9331 H   0  0  0  0  0  0  0  0  0  0  0  0
   20.3978   17.9044   20.9599 H   0  0  0  0  0  0  0  0  0  0  0  0
   19.9154   18.3059   23.0421 C   0  0  0  0  0  0  0  0  0  0  0  0
   20.2367   18.9936   23.8366 H   0  0  0  0  0  0  0  0  0  0  0  0
   18.8486   18.5008   22.8646 H   0  0  0  0  0  0  0  0  0  0  0  0
   20.0997   16.8501   23.5157 C   0  0  0  0  0  0  0  0  0  0  0  0
   21.1551   16.6375   23.7309 H   0  0  0  0  0  0  0  0  0  0  0  0
   19.5233   16.6654   24.4315 H   0  0  0  0  0  0  0  0  0  0  0  0
   19.7563   16.1416   22.7505 H   0  0  0  0  0  0  0  0  0  0  0  0
  1  2  1  0  0  0  0
  1  3  2  0  0  0  0
  1  4  1  0  0  0  0
  4  5  1  0  0  0  0
  4  6  2  0  0  0  0
  6  7  1  0  0  0  0
  6  8  1  0  0  0  0
  8  9  1  0  0  0  0
  8 10  1  0  0  0  0
  8 11  1  0  0  0  0
 11 12  1  0  0  0  0
 11 13  1  0  0  0  0
 11 14  1  0  0  0  0
 14 15  1  0  0  0  0
 14 16  1  0  0  0  0
 14 17  1  0  0  0  0
M  END
> <VConfSearch Rank>
390

> <Conf_Id>
1

> <Delta U+W>
0.030

> <U+W>
-53.378

> <U>
9.048

> <W>
-62.426

> <W(PB)>
-64.506

> <W(SA)>
2.080

> <Valence>
2.652

> <Coulomb>
5.578

> <VdW>
0.818

> <VdW6>
-4.535

> <VdW12>
5.352

> <Bond>
0.063

> <Angle>
2.579

> <Pdih>
0.010

> <Idih>
0.000

> <Tether>
0.000

$$$$
VeraChem MOL file


 17 16  0  0  0  0  0  0  0  0999 V2000     
   22.5981   19.7692   23.5904 C   0  0  0  0  0  0  0  0  0  0  0  0
   22.5139   20.9822   23.6332 O   0  5  0  0  0  0  0  0  0  0  0  0
   23.3584   19.1352   24.2960 O   0  0  0  0  0  0  0  0  0  0  0  0
   21.7460   19.0060   22.6388 C   0  0  0  0  0  0  0  0  0  0  0  0
   21.8712   17.9258   22.6507 H   0  0  0  0  0  0  0  0  0  0  0  0
   20.8564   19.5796   21.7970 C   0  0  0  0  0  0  0  0  0  0  0  0
   20.7204   20.6607   21.7792 H   0  0  0  0  0  0  0  0  0  0  0  0
   19.9897   18.7959   20.8338 C   0  0  0  0  0  0  0  0  0  0  0  0
   20.5793   17.9862   20.3830 H   0  0  0  0  0  0  0  0  0  0  0  0
   19.6745   19.4434   20.0044 H   0  0  0  0  0  0  0  0  0  0  0  0
   18.7443   18.1935   21.5206 C   0  0  0  0  0  0  0  0  0  0  0  0
   18.2132   17.5527   20.8033 H   0  0  0  0  0  0  0  0  0  0  0  0
   19.0566   17.5442   22.3502 H   0  0  0  0  0  0  0  0  0  0  0  0
   17.7758   19.2757   22.0437 C   0  0  0  0  0  0  0  0  0  0  0  0
   17.4403   19.9297   21.2282 H   0  0  0  0  0  0  0  0  0  0  0  0
   16.8881   18.8137   22.4947 H   0  0  0  0  0  0  0  0  0  0  0  0
   18.2554   19.9002   22.8087 H   0  0  0  0  0  0  0  0  0  0  0  0
  1  2  1  0  0  0  0
  1  3  2  0  0  0  0
  1  4  1  0  0  0  0
  4  5  1  0  0  0  0
  4  6  2  0  0  0  0
  6  7  1  0  0  0  0
  6  8  1  0  0  0  0
  8  9  1  0  0  0  0
  8 10  1  0  0  0  0
  8 11  1  0  0  0  0
 11 12  1  0  0  0  0
 11 13  1  0  0  0  0
 11 14  1  0  0  0  0
 14 15  1  0  0  0  0
 14 16  1  0  0  0  0
 14 17  1  0  0  0  0
M  END
> <VConfSearch Rank>
391

> <Conf_Id>
3

> <Delta U+W>
0.531

> <U+W>
-52.878

> <U>
10.067

> <W>
-62.945

> <W(PB)>
-64.982

> <W(SA)>
2.037

> <Valence>
2.779

> <Coulomb>
6.474

> <VdW>
0.815

> <VdW6>
-5.088

> <VdW12>
5.902

> <Bond>
0.078

> <Angle>
2.651

> <Pdih>
0.050

> <Idih>
0.000

> <Tether>
0.000

$$$$
VeraChem MOL file


 17 16  0  0  0  0  0  0  0  0999 V2000     
   21.7916   20.9126   20.4834 C   0  0  0  0  0  0  0  0  0  0  0  0
   22.8394   20.6599   19.9212 O   0  5  0  0  0  0  0  0  0  0  0  0
   21.4678   22.0418   20.8002 O   0  0  0  0  0  0  0  0  0  0  0  0
   20.8807   19.7748   20.7834 C   0  0  0  0  0  0  0  0  0  0  0  0
   21.2309   18.7930   20.4735 H   0  0  0  0  0  0  0  0  0  0  0  0
   19.6870   19.9089   21.4051 C   0  0  0  0  0  0  0  0  0  0  0  0
   19.3302   20.8886   21.7222 H   0  0  0  0  0  0  0  0  0  0  0  0
   18.7631   18.7484   21.7116 C   0  0  0  0  0  0  0  0  0  0  0  0
   19.0324   17.8704   21.1088 H   0  0  0  0  0  0  0  0  0  0  0  0
   17.7397   19.0178   21.4182 H   0  0  0  0  0  0  0  0  0  0  0  0
   18.7720   18.3719   23.2094 C   0  0  0  0  0  0  0  0  0  0  0  0
   18.5053   19.2503   23.8134 H   0  0  0  0  0  0  0  0  0  0  0  0
   17.9955   17.6168   23.3938 H   0  0  0  0  0  0  0  0  0  0  0  0
   20.1349   17.8155   23.6739 C   0  0  0  0  0  0  0  0  0  0  0  0
   20.9276   18.5670   23.5647 H   0  0  0  0  0  0  0  0  0  0  0  0
   20.0924   17.5227   24.7309 H   0  0  0  0  0  0  0  0  0  0  0  0
   20.4182   16.9313   23.0881 H   0  0  0  0  0  0  0  0  0  0  0  0
  1  2  1  0  0  0  0
  1  3  2  0  0  0  0
  1  4  1  0  0  0  0
  4  5  1  0  0  0  0
  4  6  2  0  0  0  0
  6  7  1  0  0  0  0
  6  8  1  0  0  0  0
  8  9  1  0  0  0  0
  8 10  1  0  0  0  0
  8 11  1  0  0  0  0
 11 12  1  0  0  0  0
 11 13  1  0  0  0  0
 11 14  1  0  0  0  0
 14 15  1  0  0  0  0
 14 16  1  0  0  0  0
 14 17  1  0  0  0  0
M  END
> <VConfSearch Rank>
392

> <Conf_Id>
45

> <Delta U+W>
0.562

> <U+W>
-52.846

> <U>
10.243

> <W>
-63.089

> <W(PB)>
-65.116

> <W(SA)>
2.026

> <Valence>
2.822

> <Coulomb>
6.637

> <VdW>
0.785

> <VdW6>
-5.216

> <VdW12>
6.001

> <Bond>
0.080

> <Angle>
2.678

> <Pdih>
0.064

> <Idih>
0.000

> <Tether>
0.000

$$$$
VeraChem MOL file


 17 16  0  0  0  0  0  0  0  0999 V2000     
   16.9142   17.9020   21.2654 C   0  0  0  0  0  0  0  0  0  0  0  0
   16.0062   18.4044   20.6322 O   0  5  0  0  0  0  0  0  0  0  0  0
   16.7622   16.9286   21.9794 O   0  0  0  0  0  0  0  0  0  0  0  0
   18.2617   18.5216   21.1446 C   0  0  0  0  0  0  0  0  0  0  0  0
   18.3287   19.3881   20.4908 H   0  0  0  0  0  0  0  0  0  0  0  0
   19.3599   18.0693   21.7914 C   0  0  0  0  0  0  0  0  0  0  0  0
   19.3035   17.2034   22.4508 H   0  0  0  0  0  0  0  0  0  0  0  0
   20.7263   18.7066   21.6648 C   0  0  0  0  0  0  0  0  0  0  0  0
   20.8946   19.0317   20.6290 H   0  0  0  0  0  0  0  0  0  0  0  0
   21.5018   17.9616   21.8883 H   0  0  0  0  0  0  0  0  0  0  0  0
   20.8759   19.9094   22.6187 C   0  0  0  0  0  0  0  0  0  0  0  0
   20.1033   20.6578   22.3935 H   0  0  0  0  0  0  0  0  0  0  0  0
   20.7092   19.5814   23.6541 H   0  0  0  0  0  0  0  0  0  0  0  0
   22.2696   20.5590   22.5025 C   0  0  0  0  0  0  0  0  0  0  0  0
   23.0604   19.8400   22.7537 H   0  0  0  0  0  0  0  0  0  0  0  0
   22.4491   20.9239   21.4826 H   0  0  0  0  0  0  0  0  0  0  0  0
   22.3570   21.4120   23.1878 H   0  0  0  0  0  0  0  0  0  0  0  0
  1  2  1  0  0  0  0
  1  3  2  0  0  0  0
  1  4  1  0  0  0  0
  4  5  1  0  0  0  0
  4  6  2  0  0  0  0
  6  7  1  0  0  0  0
  6  8  1  0  0  0  0
  8  9  1  0  0  0  0
  8 10  1  0  0  0  0
  8 11  1  0  0  0  0
 11 12  1  0  0  0  0
 11 13  1  0  0  0  0
 11 14  1  0  0  0  0
 14 15  1  0  0  0  0
 14 16  1  0  0  0  0
 14 17  1  0  0  0  0
M  END
> <VConfSearch Rank>
393

> <Conf_Id>
36

> <Delta U+W>
0.000

> <U+W>
-53.409

> <U>
9.048

> <W>
-62.457

> <W(PB)>
-64.540

> <W(SA)>
2.084

> <Valence>
2.652

> <Coulomb>
5.578

> <VdW>
0.818

> <VdW6>
-4.534

> <VdW12>
5.352

> <Bond>
0.063

> <Angle>
2.579

> <Pdih>
0.010

> <Idih>
0.000

> <Tether>
0.000

$$$$
VeraChem MOL file


 17 16  0  0  0  0  0  0  0  0999 V2000     
   17.5150   21.2912   22.4626 C   0  0  0  0  0  0  0  0  0  0  0  0
   16.4862   20.6453   22.5313 O   0  5  0  0  0  0  0  0  0  0  0  0
   17.5291   22.5048   22.3946 O   0  0  0  0  0  0  0  0  0  0  0  0
   18.8260   20.5872   22.4616 C   0  0  0  0  0  0  0  0  0  0  0  0
   19.7060   21.2231   22.3983 H   0  0  0  0  0  0  0  0  0  0  0  0
   18.9598   19.2432   22.5311 C   0  0  0  0  0  0  0  0  0  0  0  0
   18.0847   18.5966   22.5926 H   0  0  0  0  0  0  0  0  0  0  0  0
   20.2969   18.5350   22.5276 C   0  0  0  0  0  0  0  0  0  0  0  0
   20.1971   17.5583   23.0200 H   0  0  0  0  0  0  0  0  0  0  0  0
   21.0269   19.1081   23.1154 H   0  0  0  0  0  0  0  0  0  0  0  0
   20.8245   18.3377   21.0918 C   0  0  0  0  0  0  0  0  0  0  0  0
   20.0937   17.7625   20.5065 H   0  0  0  0  0  0  0  0  0  0  0  0
   20.9289   19.3144   20.5991 H   0  0  0  0  0  0  0  0  0  0  0  0
   22.1829   17.6082   21.0791 C   0  0  0  0  0  0  0  0  0  0  0  0
   22.0995   16.6143   21.5382 H   0  0  0  0  0  0  0  0  0  0  0  0
   22.5419   17.4770   20.0500 H   0  0  0  0  0  0  0  0  0  0  0  0
   22.9405   18.1789   21.6321 H   0  0  0  0  0  0  0  0  0  0  0  0
  1  2  1  0  0  0  0
  1  3  2  0  0  0  0
  1  4  1  0  0  0  0
  4  5  1  0  0  0  0
  4  6  2  0  0  0  0
  6  7  1  0  0  0  0
  6  8  1  0  0  0  0
  8  9  1  0  0  0  0
  8 10  1  0  0  0  0
  8 11  1  0  0  0  0
 11 12  1  0  0  0  0
 11 13  1  0  0  0  0
 11 14  1  0  0  0  0
 14 15  1  0  0  0  0
 14 16  1  0  0  0  0
 14 17  1  0  0  0  0
M  END
> <VConfSearch Rank>
394

> <Conf_Id>
1

> <Delta U+W>
0.030

> <U+W>
-53.378

> <U>
9.048

> <W>
-62.426

> <W(PB)>
-64.506

> <W(SA)>
2.080

> <Valence>
2.652

> <Coulomb>
5.578

> <VdW>
0.818

> <VdW6>
-4.535

> <VdW12>
5.352

> <Bond>
0.063

> <Angle>
2.579

> <Pdih>
0.010

> <Idih>
0.000

> <Tether>
0.000

$$$$
VeraChem MOL file


 17 16  0  0  0  0  0  0  0  0999 V2000     
   21.5887   17.4276   19.9835 C   0  0  0  0  0  0  0  0  0  0  0  0
   22.7093   17.8701   20.1537 O   0  5  0  0  0  0  0  0  0  0  0  0
   21.3721   16.3927   19.3836 O   0  0  0  0  0  0  0  0  0  0  0  0
   20.4158   18.1691   20.5205 C   0  0  0  0  0  0  0  0  0  0  0  0
   19.4434   17.7196   20.3328 H   0  0  0  0  0  0  0  0  0  0  0  0
   20.5084   19.3304   21.2074 C   0  0  0  0  0  0  0  0  0  0  0  0
   21.4778   19.7878   21.4041 H   0  0  0  0  0  0  0  0  0  0  0  0
   19.3102   20.0776   21.7544 C   0  0  0  0  0  0  0  0  0  0  0  0
   18.4937   20.0521   21.0201 H   0  0  0  0  0  0  0  0  0  0  0  0
   19.5634   21.1371   21.8941 H   0  0  0  0  0  0  0  0  0  0  0  0
   18.8085   19.4861   23.0900 C   0  0  0  0  0  0  0  0  0  0  0  0
   17.8810   19.9970   23.3832 H   0  0  0  0  0  0  0  0  0  0  0  0
   18.5531   18.4262   22.9531 H   0  0  0  0  0  0  0  0  0  0  0  0
   19.8437   19.6289   24.2261 C   0  0  0  0  0  0  0  0  0  0  0  0
   20.1048   20.6826   24.3893 H   0  0  0  0  0  0  0  0  0  0  0  0
   19.4423   19.2295   25.1664 H   0  0  0  0  0  0  0  0  0  0  0  0
   20.7653   19.0794   23.9935 H   0  0  0  0  0  0  0  0  0  0  0  0
  1  2  1  0  0  0  0
  1  3  2  0  0  0  0
  1  4  1  0  0  0  0
  4  5  1  0  0  0  0
  4  6  2  0  0  0  0
  6  7  1  0  0  0  0
  6  8  1  0  0  0  0
  8  9  1  0  0  0  0
  8 10  1  0  0  0  0
  8 11  1  0  0  0  0
 11 12  1  0  0  0  0
 11 13  1  0  0  0  0
 11 14  1  0  0  0  0
 14 15  1  0  0  0  0
 14 16  1  0  0  0  0
 14 17  1  0  0  0  0
M  END
> <VConfSearch Rank>
395

> <Conf_Id>
3

> <Delta U+W>
0.531

> <U+W>
-52.878

> <U>
10.067

> <W>
-62.945

> <W(PB)>
-64.982

> <W(SA)>
2.037

> <Valence>
2.779

> <Coulomb>
6.474

> <VdW>
0.815

> <VdW6>
-5.088

> <VdW12>
5.902

> <Bond>
0.078

> <Angle>
2.651

> <Pdih>
0.050

> <Idih>
0.000

> <Tether>
0.000

$$$$
VeraChem MOL file


 17 16  0  0  0  0  0  0  0  0999 V2000     
   17.2066   18.5822   23.1609 C   0  0  0  0  0  0  0  0  0  0  0  0
   16.1535   18.4560   22.5669 O   0  5  0  0  0  0  0  0  0  0  0  0
   17.2687   18.8754   24.3401 O   0  0  0  0  0  0  0  0  0  0  0  0
   18.4606   18.3601   22.3913 C   0  0  0  0  0  0  0  0  0  0  0  0
   18.3336   18.1010   21.3428 H   0  0  0  0  0  0  0  0  0  0  0  0
   19.6999   18.4686   22.9224 C   0  0  0  0  0  0  0  0  0  0  0  0
   19.8363   18.7314   23.9711 H   0  0  0  0  0  0  0  0  0  0  0  0
   20.9748   18.2446   22.1357 C   0  0  0  0  0  0  0  0  0  0  0  0
   20.7642   17.6990   21.2058 H   0  0  0  0  0  0  0  0  0  0  0  0
   21.6484   17.6035   22.7198 H   0  0  0  0  0  0  0  0  0  0  0  0
   21.7014   19.5674   21.8080 C   0  0  0  0  0  0  0  0  0  0  0  0
   21.9101   20.1151   22.7375 H   0  0  0  0  0  0  0  0  0  0  0  0
   22.6751   19.3384   21.3533 H   0  0  0  0  0  0  0  0  0  0  0  0
   20.8954   20.4650   20.8449 C   0  0  0  0  0  0  0  0  0  0  0  0
   19.9400   20.7685   21.2923 H   0  0  0  0  0  0  0  0  0  0  0  0
   21.4584   21.3760   20.6040 H   0  0  0  0  0  0  0  0  0  0  0  0
   20.6818   19.9397   19.9049 H   0  0  0  0  0  0  0  0  0  0  0  0
  1  2  1  0  0  0  0
  1  3  2  0  0  0  0
  1  4  1  0  0  0  0
  4  5  1  0  0  0  0
  4  6  2  0  0  0  0
  6  7  1  0  0  0  0
  6  8  1  0  0  0  0
  8  9  1  0  0  0  0
  8 10  1  0  0  0  0
  8 11  1  0  0  0  0
 11 12  1  0  0  0  0
 11 13  1  0  0  0  0
 11 14  1  0  0  0  0
 14 15  1  0  0  0  0
 14 16  1  0  0  0  0
 14 17  1  0  0  0  0
M  END
> <VConfSearch Rank>
396

> <Conf_Id>
45

> <Delta U+W>
0.562

> <U+W>
-52.846

> <U>
10.243

> <W>
-63.089

> <W(PB)>
-65.116

> <W(SA)>
2.026

> <Valence>
2.822

> <Coulomb>
6.637

> <VdW>
0.785

> <VdW6>
-5.216

> <VdW12>
6.001

> <Bond>
0.080

> <Angle>
2.678

> <Pdih>
0.064

> <Idih>
0.000

> <Tether>
0.000

$$$$
VeraChem MOL file


 17 16  0  0  0  0  0  0  0  0999 V2000     
   20.9882   17.7435   24.8289 C   0  0  0  0  0  0  0  0  0  0  0  0
   20.7160   16.6563   25.2995 O   0  5  0  0  0  0  0  0  0  0  0  0
   21.5137   18.6304   25.4753 O   0  0  0  0  0  0  0  0  0  0  0  0
   20.6558   17.9757   23.3972 C   0  0  0  0  0  0  0  0  0  0  0  0
   20.1879   17.1427   22.8775 H   0  0  0  0  0  0  0  0  0  0  0  0
   20.9005   19.1349   22.7450 C   0  0  0  0  0  0  0  0  0  0  0  0
   21.3667   19.9767   23.2567 H   0  0  0  0  0  0  0  0  0  0  0  0
   20.5573   19.3636   21.2893 C   0  0  0  0  0  0  0  0  0  0  0  0
   20.7522   18.4511   20.7096 H   0  0  0  0  0  0  0  0  0  0  0  0
   21.2116   20.1426   20.8751 H   0  0  0  0  0  0  0  0  0  0  0  0
   19.0830   19.7836   21.1188 C   0  0  0  0  0  0  0  0  0  0  0  0
   18.4268   19.0033   21.5289 H   0  0  0  0  0  0  0  0  0  0  0  0
   18.8910   20.6977   21.6978 H   0  0  0  0  0  0  0  0  0  0  0  0
   18.7276   20.0279   19.6384 C   0  0  0  0  0  0  0  0  0  0  0  0
   19.3483   20.8268   19.2119 H   0  0  0  0  0  0  0  0  0  0  0  0
   18.8815   19.1188   19.0423 H   0  0  0  0  0  0  0  0  0  0  0  0
   17.6758   20.3254   19.5372 H   0  0  0  0  0  0  0  0  0  0  0  0
  1  2  1  0  0  0  0
  1  3  2  0  0  0  0
  1  4  1  0  0  0  0
  4  5  1  0  0  0  0
  4  6  2  0  0  0  0
  6  7  1  0  0  0  0
  6  8  1  0  0  0  0
  8  9  1  0  0  0  0
  8 10  1  0  0  0  0
  8 11  1  0  0  0  0
 11 12  1  0  0  0  0
 11 13  1  0  0  0  0
 11 14  1  0  0  0  0
 14 15  1  0  0  0  0
 14 16  1  0  0  0  0
 14 17  1  0  0  0  0
M  END
> <VConfSearch Rank>
397

> <Conf_Id>
36

> <Delta U+W>
0.000

> <U+W>
-53.409

> <U>
9.048

> <W>
-62.457

> <W(PB)>
-64.540

> <W(SA)>
2.084

> <Valence>
2.652

> <Coulomb>
5.578

> <VdW>
0.818

> <VdW6>
-4.534

> <VdW12>
5.352

> <Bond>
0.063

> <Angle>
2.579

> <Pdih>
0.010

> <Idih>
0.000

> <Tether>
0.000

$$$$
VeraChem MOL file


 17 16  0  0  0  0  0  0  0  0999 V2000     
   22.3211   21.3741   20.9901 C   0  0  0  0  0  0  0  0  0  0  0  0
   23.1070   20.8038   20.2569 O   0  5  0  0  0  0  0  0  0  0  0  0
   22.5204   22.4890   21.4316 O   0  0  0  0  0  0  0  0  0  0  0  0
   21.0530   20.6981   21.3763 C   0  0  0  0  0  0  0  0  0  0  0  0
   20.3953   21.2626   22.0333 H   0  0  0  0  0  0  0  0  0  0  0  0
   20.7023   19.4597   20.9611 C   0  0  0  0  0  0  0  0  0  0  0  0
   21.3547   18.8845   20.3045 H   0  0  0  0  0  0  0  0  0  0  0  0
   19.4114   18.7787   21.3601 C   0  0  0  0  0  0  0  0  0  0  0  0
   19.1385   18.0338   20.6004 H   0  0  0  0  0  0  0  0  0  0  0  0
   18.5932   19.5112   21.3875 H   0  0  0  0  0  0  0  0  0  0  0  0
   19.5405   18.0907   22.7345 C   0  0  0  0  0  0  0  0  0  0  0  0
   20.3581   17.3570   22.7039 H   0  0  0  0  0  0  0  0  0  0  0  0
   19.8096   18.8354   23.4965 H   0  0  0  0  0  0  0  0  0  0  0  0
   18.2316   17.3862   23.1443 C   0  0  0  0  0  0  0  0  0  0  0  0
   17.9561   16.6136   22.4145 H   0  0  0  0  0  0  0  0  0  0  0  0
   18.3427   16.9030   24.1237 H   0  0  0  0  0  0  0  0  0  0  0  0
   17.4038   18.1042   23.2126 H   0  0  0  0  0  0  0  0  0  0  0  0
  1  2  1  0  0  0  0
  1  3  2  0  0  0  0
  1  4  1  0  0  0  0
  4  5  1  0  0  0  0
  4  6  2  0  0  0  0
  6  7  1  0  0  0  0
  6  8  1  0  0  0  0
  8  9  1  0  0  0  0
  8 10  1  0  0  0  0
  8 11  1  0  0  0  0
 11 12  1  0  0  0  0
 11 13  1  0  0  0  0
 11 14  1  0  0  0  0
 14 15  1  0  0  0  0
 14 16  1  0  0  0  0
 14 17  1  0  0  0  0
M  END
> <VConfSearch Rank>
398

> <Conf_Id>
1

> <Delta U+W>
0.030

> <U+W>
-53.378

> <U>
9.048

> <W>
-62.426

> <W(PB)>
-64.506

> <W(SA)>
2.080

> <Valence>
2.652

> <Coulomb>
5.578

> <VdW>
0.818

> <VdW6>
-4.535

> <VdW12>
5.352

> <Bond>
0.063

> <Angle>
2.579

> <Pdih>
0.010

> <Idih>
0.000

> <Tether>
0.000

$$$$
VeraChem MOL file


 17 16  0  0  0  0  0  0  0  0999 V2000     
   17.1488   19.0442   20.9214 C   0  0  0  0  0  0  0  0  0  0  0  0
   16.7551   20.1377   21.2814 O   0  5  0  0  0  0  0  0  0  0  0  0
   16.5797   18.3840   20.0740 O   0  0  0  0  0  0  0  0  0  0  0  0
   18.3764   18.4667   21.5328 C   0  0  0  0  0  0  0  0  0  0  0  0
   18.6728   17.4864   21.1671 H   0  0  0  0  0  0  0  0  0  0  0  0
   19.1092   19.0894   22.4838 C   0  0  0  0  0  0  0  0  0  0  0  0
   18.8231   20.0732   22.8550 H   0  0  0  0  0  0  0  0  0  0  0  0
   20.3598   18.4970   23.0987 C   0  0  0  0  0  0  0  0  0  0  0  0
   20.2100   17.4234   23.2761 H   0  0  0  0  0  0  0  0  0  0  0  0
   20.5404   18.9478   24.0838 H   0  0  0  0  0  0  0  0  0  0  0  0
   21.6039   18.6937   22.2049 C   0  0  0  0  0  0  0  0  0  0  0  0
   22.4532   18.1556   22.6481 H   0  0  0  0  0  0  0  0  0  0  0  0
   21.4267   18.2425   21.2188 H   0  0  0  0  0  0  0  0  0  0  0  0
   21.9817   20.1808   22.0359 C   0  0  0  0  0  0  0  0  0  0  0  0
   22.1759   20.6497   23.0093 H   0  0  0  0  0  0  0  0  0  0  0  0
   22.8876   20.2817   21.4243 H   0  0  0  0  0  0  0  0  0  0  0  0
   21.1773   20.7399   21.5404 H   0  0  0  0  0  0  0  0  0  0  0  0
  1  2  1  0  0  0  0
  1  3  2  0  0  0  0
  1  4  1  0  0  0  0
  4  5  1  0  0  0  0
  4  6  2  0  0  0  0
  6  7  1  0  0  0  0
  6  8  1  0  0  0  0
  8  9  1  0  0  0  0
  8 10  1  0  0  0  0
  8 11  1  0  0  0  0
 11 12  1  0  0  0  0
 11 13  1  0  0  0  0
 11 14  1  0  0  0  0
 14 15  1  0  0  0  0
 14 16  1  0  0  0  0
 14 17  1  0  0  0  0
M  END
> <VConfSearch Rank>
399

> <Conf_Id>
3

> <Delta U+W>
0.531

> <U+W>
-52.878

> <U>
10.067

> <W>
-62.945

> <W(PB)>
-64.982

> <W(SA)>
2.037

> <Valence>
2.779

> <Coulomb>
6.474

> <VdW>
0.815

> <VdW6>
-5.088

> <VdW12>
5.902

> <Bond>
0.078

> <Angle>
2.651

> <Pdih>
0.050

> <Idih>
0.000

> <Tether>
0.000

$$$$
VeraChem MOL file


 17 16  0  0  0  0  0  0  0  0999 V2000     
   22.8123   18.1192   22.4208 C   0  0  0  0  0  0  0  0  0  0  0  0
   23.5543   17.5957   21.6126 O   0  5  0  0  0  0  0  0  0  0  0  0
   22.9677   18.0167   23.6232 O   0  0  0  0  0  0  0  0  0  0  0  0
   21.6734   18.9176   21.8919 C   0  0  0  0  0  0  0  0  0  0  0  0
   21.5929   18.9682   20.8085 H   0  0  0  0  0  0  0  0  0  0  0  0
   20.7701   19.5516   22.6739 C   0  0  0  0  0  0  0  0  0  0  0  0
   20.8413   19.5030   23.7603 H   0  0  0  0  0  0  0  0  0  0  0  0
   19.6101   20.3613   22.1325 C   0  0  0  0  0  0  0  0  0  0  0  0
   19.7760   20.6160   21.0769 H   0  0  0  0  0  0  0  0  0  0  0  0
   19.5570   21.3163   22.6721 H   0  0  0  0  0  0  0  0  0  0  0  0
   18.2607   19.6254   22.2829 C   0  0  0  0  0  0  0  0  0  0  0  0
   18.0952   19.3680   23.3383 H   0  0  0  0  0  0  0  0  0  0  0  0
   17.4474   20.3055   21.9946 H   0  0  0  0  0  0  0  0  0  0  0  0
   18.1802   18.3498   21.4174 C   0  0  0  0  0  0  0  0  0  0  0  0
   18.9393   17.6169   21.7203 H   0  0  0  0  0  0  0  0  0  0  0  0
   17.1955   17.8756   21.5193 H   0  0  0  0  0  0  0  0  0  0  0  0
   18.3353   18.5849   20.3564 H   0  0  0  0  0  0  0  0  0  0  0  0
  1  2  1  0  0  0  0
  1  3  2  0  0  0  0
  1  4  1  0  0  0  0
  4  5  1  0  0  0  0
  4  6  2  0  0  0  0
  6  7  1  0  0  0  0
  6  8  1  0  0  0  0
  8  9  1  0  0  0  0
  8 10  1  0  0  0  0
  8 11  1  0  0  0  0
 11 12  1  0  0  0  0
 11 13  1  0  0  0  0
 11 14  1  0  0  0  0
 14 15  1  0  0  0  0
 14 16  1  0  0  0  0
 14 17  1  0  0  0  0
M  END
> <VConfSearch Rank>
400

> <Conf_Id>
45

> <Delta U+W>
0.562

> <U+W>
-52.846

> <U>
10.243

> <W>
-63.089

> <W(PB)>
-65.116

> <W(SA)>
2.026

> <Valence>
2.822

> <Coulomb>
6.637

> <VdW>
0.785

> <VdW6>
-5.216

> <VdW12>
6.001

> <Bond>
0.080

> <Angle>
2.678

> <Pdih>
0.064

> <Idih>
0.000

> <Tether>
0.000

$$$$
VeraChem MOL file


 17 16  0  0  0  0  0  0  0  0999 V2000     
   20.8594   20.7431   19.0876 C   0  0  0  0  0  0  0  0  0  0  0  0
   20.1478   21.2564   18.2463 O   0  5  0  0  0  0  0  0  0  0  0  0
   22.0466   20.5404   18.9143 O   0  0  0  0  0  0  0  0  0  0  0  0
   20.2285   20.3556   20.3783 C   0  0  0  0  0  0  0  0  0  0  0  0
   19.1648   20.5643   20.4681 H   0  0  0  0  0  0  0  0  0  0  0  0
   20.8979   19.7759   21.4005 C   0  0  0  0  0  0  0  0  0  0  0  0
   21.9632   19.5602   21.3202 H   0  0  0  0  0  0  0  0  0  0  0  0
   20.2482   19.3829   22.7091 C   0  0  0  0  0  0  0  0  0  0  0  0
   19.5096   20.1407   23.0042 H   0  0  0  0  0  0  0  0  0  0  0  0
   21.0062   19.3594   23.5037 H   0  0  0  0  0  0  0  0  0  0  0  0
   19.5658   18.0035   22.6058 C   0  0  0  0  0  0  0  0  0  0  0  0
   18.8042   18.0265   21.8141 H   0  0  0  0  0  0  0  0  0  0  0  0
   20.3070   17.2469   22.3126 H   0  0  0  0  0  0  0  0  0  0  0  0
   18.9091   17.5913   23.9386 C   0  0  0  0  0  0  0  0  0  0  0  0
   19.6552   17.5295   24.7418 H   0  0  0  0  0  0  0  0  0  0  0  0
   18.1412   18.3163   24.2389 H   0  0  0  0  0  0  0  0  0  0  0  0
   18.4292   16.6084   23.8456 H   0  0  0  0  0  0  0  0  0  0  0  0
  1  2  1  0  0  0  0
  1  3  2  0  0  0  0
  1  4  1  0  0  0  0
  4  5  1  0  0  0  0
  4  6  2  0  0  0  0
  6  7  1  0  0  0  0
  6  8  1  0  0  0  0
  8  9  1  0  0  0  0
  8 10  1  0  0  0  0
  8 11  1  0  0  0  0
 11 12  1  0  0  0  0
 11 13  1  0  0  0  0
 11 14  1  0  0  0  0
 14 15  1  0  0  0  0
 14 16  1  0  0  0  0
 14 17  1  0  0  0  0
M  END
> <VConfSearch Rank>
401

> <Conf_Id>
36

> <Delta U+W>
0.000

> <U+W>
-53.409

> <U>
9.048

> <W>
-62.457

> <W(PB)>
-64.540

> <W(SA)>
2.084

> <Valence>
2.652

> <Coulomb>
5.578

> <VdW>
0.818

> <VdW6>
-4.534

> <VdW12>
5.352

> <Bond>
0.063

> <Angle>
2.579

> <Pdih>
0.010

> <Idih>
0.000

> <Tether>
0.000

$$$$
VeraChem MOL file


 17 16  0  0  0  0  0  0  0  0999 V2000     
   17.1920   19.2524   23.7543 C   0  0  0  0  0  0  0  0  0  0  0  0
   16.2755   19.4478   22.9783 O   0  5  0  0  0  0  0  0  0  0  0  0
   17.0637   19.3313   24.9605 O   0  0  0  0  0  0  0  0  0  0  0  0
   18.5380   18.8984   23.2277 C   0  0  0  0  0  0  0  0  0  0  0  0
   19.3122   18.7368   23.9742 H   0  0  0  0  0  0  0  0  0  0  0  0
   18.8244   18.7772   21.9115 C   0  0  0  0  0  0  0  0  0  0  0  0
   18.0568   18.9391   21.1550 H   0  0  0  0  0  0  0  0  0  0  0  0
   20.1965   18.4187   21.3842 C   0  0  0  0  0  0  0  0  0  0  0  0
   20.1002   17.9563   20.3926 H   0  0  0  0  0  0  0  0  0  0  0  0
   20.6646   17.6677   22.0352 H   0  0  0  0  0  0  0  0  0  0  0  0
   21.1040   19.6622   21.2879 C   0  0  0  0  0  0  0  0  0  0  0  0
   20.6348   20.4109   20.6347 H   0  0  0  0  0  0  0  0  0  0  0  0
   21.2048   20.1237   22.2801 H   0  0  0  0  0  0  0  0  0  0  0  0
   22.5017   19.3066   20.7424 C   0  0  0  0  0  0  0  0  0  0  0  0
   22.4322   18.8717   19.7367 H   0  0  0  0  0  0  0  0  0  0  0  0
   23.1325   20.2030   20.6810 H   0  0  0  0  0  0  0  0  0  0  0  0
   23.0056   18.5819   21.3953 H   0  0  0  0  0  0  0  0  0  0  0  0
  1  2  1  0  0  0  0
  1  3  2  0  0  0  0
  1  4  1  0  0  0  0
  4  5  1  0  0  0  0
  4  6  2  0  0  0  0
  6  7  1  0  0  0  0
  6  8  1  0  0  0  0
  8  9  1  0  0  0  0
  8 10  1  0  0  0  0
  8 11  1  0  0  0  0
 11 12  1  0  0  0  0
 11 13  1  0  0  0  0
 11 14  1  0  0  0  0
 14 15  1  0  0  0  0
 14 16  1  0  0  0  0
 14 17  1  0  0  0  0
M  END
> <VConfSearch Rank>
402

> <Conf_Id>
1

> <Delta U+W>
0.030

> <U+W>
-53.378

> <U>
9.048

> <W>
-62.426

> <W(PB)>
-64.506

> <W(SA)>
2.080

> <Valence>
2.652

> <Coulomb>
5.578

> <VdW>
0.818

> <VdW6>
-4.535

> <VdW12>
5.352

> <Bond>
0.063

> <Angle>
2.579

> <Pdih>
0.010

> <Idih>
0.000

> <Tether>
0.000

$$$$
VeraChem MOL file


 17 16  0  0  0  0  0  0  0  0999 V2000     
   20.2175   20.4891   19.3124 C   0  0  0  0  0  0  0  0  0  0  0  0
   19.4403   19.8144   18.6635 O   0  5  0  0  0  0  0  0  0  0  0  0
   20.6160   21.5763   18.9420 O   0  0  0  0  0  0  0  0  0  0  0  0
   20.7192   19.9816   20.6181 C   0  0  0  0  0  0  0  0  0  0  0  0
   21.4115   20.6331   21.1464 H   0  0  0  0  0  0  0  0  0  0  0  0
   20.3601   18.7923   21.1526 C   0  0  0  0  0  0  0  0  0  0  0  0
   19.6647   18.1332   20.6335 H   0  0  0  0  0  0  0  0  0  0  0  0
   20.8720   18.2840   22.4841 C   0  0  0  0  0  0  0  0  0  0  0  0
   21.9409   18.5174   22.5811 H   0  0  0  0  0  0  0  0  0  0  0  0
   20.7931   17.1892   22.5205 H   0  0  0  0  0  0  0  0  0  0  0  0
   20.1096   18.8967   23.6794 C   0  0  0  0  0  0  0  0  0  0  0  0
   20.5897   18.5760   24.6141 H   0  0  0  0  0  0  0  0  0  0  0  0
   20.1877   19.9923   23.6464 H   0  0  0  0  0  0  0  0  0  0  0  0
   18.6229   18.4822   23.7078 C   0  0  0  0  0  0  0  0  0  0  0  0
   18.5205   17.3902   23.7537 H   0  0  0  0  0  0  0  0  0  0  0  0
   18.1207   18.9070   24.5866 H   0  0  0  0  0  0  0  0  0  0  0  0
   18.0951   18.8388   22.8137 H   0  0  0  0  0  0  0  0  0  0  0  0
  1  2  1  0  0  0  0
  1  3  2  0  0  0  0
  1  4  1  0  0  0  0
  4  5  1  0  0  0  0
  4  6  2  0  0  0  0
  6  7  1  0  0  0  0
  6  8  1  0  0  0  0
  8  9  1  0  0  0  0
  8 10  1  0  0  0  0
  8 11  1  0  0  0  0
 11 12  1  0  0  0  0
 11 13  1  0  0  0  0
 11 14  1  0  0  0  0
 14 15  1  0  0  0  0
 14 16  1  0  0  0  0
 14 17  1  0  0  0  0
M  END
> <VConfSearch Rank>
403

> <Conf_Id>
3

> <Delta U+W>
0.531

> <U+W>
-52.878

> <U>
10.067

> <W>
-62.945

> <W(PB)>
-64.982

> <W(SA)>
2.037

> <Valence>
2.779

> <Coulomb>
6.474

> <VdW>
0.815

> <VdW6>
-5.088

> <VdW12>
5.902

> <Bond>
0.078

> <Angle>
2.651

> <Pdih>
0.050

> <Idih>
0.000

> <Tether>
0.000

$$$$
VeraChem MOL file


 17 16  0  0  0  0  0  0  0  0999 V2000     
   22.2872   17.2090   22.5316 C   0  0  0  0  0  0  0  0  0  0  0  0
   22.3035   15.9935   22.5387 O   0  5  0  0  0  0  0  0  0  0  0  0
   23.1481   17.8840   23.0641 O   0  0  0  0  0  0  0  0  0  0  0  0
   21.1565   17.8772   21.8322 C   0  0  0  0  0  0  0  0  0  0  0  0
   20.4227   17.2154   21.3782 H   0  0  0  0  0  0  0  0  0  0  0  0
   21.0103   19.2192   21.7476 C   0  0  0  0  0  0  0  0  0  0  0  0
   21.7390   19.8895   22.2029 H   0  0  0  0  0  0  0  0  0  0  0  0
   19.8566   19.8965   21.0372 C   0  0  0  0  0  0  0  0  0  0  0  0
   19.3517   19.1924   20.3620 H   0  0  0  0  0  0  0  0  0  0  0  0
   20.2499   20.7007   20.4011 H   0  0  0  0  0  0  0  0  0  0  0  0
   18.8307   20.4952   22.0243 C   0  0  0  0  0  0  0  0  0  0  0  0
   19.3355   21.1977   22.7019 H   0  0  0  0  0  0  0  0  0  0  0  0
   18.0903   21.0797   21.4610 H   0  0  0  0  0  0  0  0  0  0  0  0
   18.0976   19.4144   22.8472 C   0  0  0  0  0  0  0  0  0  0  0  0
   18.7998   18.8498   23.4743 H   0  0  0  0  0  0  0  0  0  0  0  0
   17.3505   19.8728   23.5079 H   0  0  0  0  0  0  0  0  0  0  0  0
   17.5790   18.7048   22.1895 H   0  0  0  0  0  0  0  0  0  0  0  0
  1  2  1  0  0  0  0
  1  3  2  0  0  0  0
  1  4  1  0  0  0  0
  4  5  1  0  0  0  0
  4  6  2  0  0  0  0
  6  7  1  0  0  0  0
  6  8  1  0  0  0  0
  8  9  1  0  0  0  0
  8 10  1  0  0  0  0
  8 11  1  0  0  0  0
 11 12  1  0  0  0  0
 11 13  1  0  0  0  0
 11 14  1  0  0  0  0
 14 15  1  0  0  0  0
 14 16  1  0  0  0  0
 14 17  1  0  0  0  0
M  END
> <VConfSearch Rank>
404

> <Conf_Id>
45

> <Delta U+W>
0.562

> <U+W>
-52.846

> <U>
10.243

> <W>
-63.089

> <W(PB)>
-65.116

> <W(SA)>
2.026

> <Valence>
2.822

> <Coulomb>
6.637

> <VdW>
0.785

> <VdW6>
-5.216

> <VdW12>
6.001

> <Bond>
0.080

> <Angle>
2.678

> <Pdih>
0.064

> <Idih>
0.000

> <Tether>
0.000

$$$$
VeraChem MOL file


 17 16  0  0  0  0  0  0  0  0999 V2000     
   18.8579   18.9857   25.0871 C   0  0  0  0  0  0  0  0  0  0  0  0
   19.0081   18.1155   25.9224 O   0  5  0  0  0  0  0  0  0  0  0  0
   18.0498   19.8870   25.2100 O   0  0  0  0  0  0  0  0  0  0  0  0
   19.7121   18.9255   23.8702 C   0  0  0  0  0  0  0  0  0  0  0  0
   20.4129   18.0951   23.8229 H   0  0  0  0  0  0  0  0  0  0  0  0
   19.6515   19.8244   22.8616 C   0  0  0  0  0  0  0  0  0  0  0  0
   18.9514   20.6588   22.8976 H   0  0  0  0  0  0  0  0  0  0  0  0
   20.5224   19.7547   21.6263 C   0  0  0  0  0  0  0  0  0  0  0  0
   21.5344   19.4249   21.8983 H   0  0  0  0  0  0  0  0  0  0  0  0
   20.6269   20.7585   21.1928 H   0  0  0  0  0  0  0  0  0  0  0  0
   19.9283   18.7970   20.5732 C   0  0  0  0  0  0  0  0  0  0  0  0
   19.8270   17.7912   21.0040 H   0  0  0  0  0  0  0  0  0  0  0  0
   18.9171   19.1301   20.3013 H   0  0  0  0  0  0  0  0  0  0  0  0
   20.8054   18.7276   19.3070 C   0  0  0  0  0  0  0  0  0  0  0  0
   20.8971   19.7159   18.8377 H   0  0  0  0  0  0  0  0  0  0  0  0
   21.8142   18.3671   19.5471 H   0  0  0  0  0  0  0  0  0  0  0  0
   20.3671   18.0420   18.5701 H   0  0  0  0  0  0  0  0  0  0  0  0
  1  2  1  0  0  0  0
  1  3  2  0  0  0  0
  1  4  1  0  0  0  0
  4  5  1  0  0  0  0
  4  6  2  0  0  0  0
  6  7  1  0  0  0  0
  6  8  1  0  0  0  0
  8  9  1  0  0  0  0
  8 10  1  0  0  0  0
  8 11  1  0  0  0  0
 11 12  1  0  0  0  0
 11 13  1  0  0  0  0
 11 14  1  0  0  0  0
 14 15  1  0  0  0  0
 14 16  1  0  0  0  0
 14 17  1  0  0  0  0
M  END
> <VConfSearch Rank>
405

> <Conf_Id>
36

> <Delta U+W>
0.000

> <U+W>
-53.409

> <U>
9.048

> <W>
-62.457

> <W(PB)>
-64.540

> <W(SA)>
2.084

> <Valence>
2.652

> <Coulomb>
5.578

> <VdW>
0.818

> <VdW6>
-4.534

> <VdW12>
5.352

> <Bond>
0.063

> <Angle>
2.579

> <Pdih>
0.010

> <Idih>
0.000

> <Tether>
0.000

$$$$
VeraChem MOL file


 17 16  0  0  0  0  0  0  0  0999 V2000     
   20.3857   15.7783   21.4133 C   0  0  0  0  0  0  0  0  0  0  0  0
   20.8512   15.6401   20.2977 O   0  5  0  0  0  0  0  0  0  0  0  0
   19.9600   14.8486   22.0707 O   0  0  0  0  0  0  0  0  0  0  0  0
   20.3255   17.1349   22.0216 C   0  0  0  0  0  0  0  0  0  0  0  0
   19.8984   17.1887   23.0204 H   0  0  0  0  0  0  0  0  0  0  0  0
   20.7611   18.2573   21.4054 C   0  0  0  0  0  0  0  0  0  0  0  0
   21.1888   18.2152   20.4039 H   0  0  0  0  0  0  0  0  0  0  0  0
   20.6945   19.6336   22.0305 C   0  0  0  0  0  0  0  0  0  0  0  0
   21.4636   20.2780   21.5837 H   0  0  0  0  0  0  0  0  0  0  0  0
   20.9241   19.5705   23.1029 H   0  0  0  0  0  0  0  0  0  0  0  0
   19.3055   20.2742   21.8322 C   0  0  0  0  0  0  0  0  0  0  0  0
   19.0791   20.3381   20.7588 H   0  0  0  0  0  0  0  0  0  0  0  0
   18.5352   19.6326   22.2823 H   0  0  0  0  0  0  0  0  0  0  0  0
   19.2323   21.6813   22.4585 C   0  0  0  0  0  0  0  0  0  0  0  0
   19.9720   22.3529   22.0034 H   0  0  0  0  0  0  0  0  0  0  0  0
   18.2377   22.1205   22.3075 H   0  0  0  0  0  0  0  0  0  0  0  0
   19.4245   21.6409   23.5388 H   0  0  0  0  0  0  0  0  0  0  0  0
  1  2  1  0  0  0  0
  1  3  2  0  0  0  0
  1  4  1  0  0  0  0
  4  5  1  0  0  0  0
  4  6  2  0  0  0  0
  6  7  1  0  0  0  0
  6  8  1  0  0  0  0
  8  9  1  0  0  0  0
  8 10  1  0  0  0  0
  8 11  1  0  0  0  0
 11 12  1  0  0  0  0
 11 13  1  0  0  0  0
 11 14  1  0  0  0  0
 14 15  1  0  0  0  0
 14 16  1  0  0  0  0
 14 17  1  0  0  0  0
M  END
> <VConfSearch Rank>
406

> <Conf_Id>
1

> <Delta U+W>
0.030

> <U+W>
-53.378

> <U>
9.048

> <W>
-62.426

> <W(PB)>
-64.506

> <W(SA)>
2.080

> <Valence>
2.652

> <Coulomb>
5.578

> <VdW>
0.818

> <VdW6>
-4.535

> <VdW12>
5.352

> <Bond>
0.063

> <Angle>
2.579

> <Pdih>
0.010

> <Idih>
0.000

> <Tether>
0.000

$$$$
VeraChem MOL file


 17 16  0  0  0  0  0  0  0  0999 V2000     
   19.7460   16.5276   20.3556 C   0  0  0  0  0  0  0  0  0  0  0  0
   19.2649   16.9887   19.3375 O   0  5  0  0  0  0  0  0  0  0  0  0
   20.2400   15.4182   20.4082 O   0  0  0  0  0  0  0  0  0  0  0  0
   19.7380   17.3364   21.6045 C   0  0  0  0  0  0  0  0  0  0  0  0
   20.1825   16.8652   22.4781 H   0  0  0  0  0  0  0  0  0  0  0  0
   19.2237   18.5843   21.6911 C   0  0  0  0  0  0  0  0  0  0  0  0
   18.7790   19.0672   20.8212 H   0  0  0  0  0  0  0  0  0  0  0  0
   19.2227   19.4030   22.9649 C   0  0  0  0  0  0  0  0  0  0  0  0
   18.9806   18.7556   23.8186 H   0  0  0  0  0  0  0  0  0  0  0  0
   18.4288   20.1607   22.9205 H   0  0  0  0  0  0  0  0  0  0  0  0
   20.5807   20.0925   23.2215 C   0  0  0  0  0  0  0  0  0  0  0  0
   20.5551   20.5817   24.2049 H   0  0  0  0  0  0  0  0  0  0  0  0
   21.3770   19.3367   23.2676 H   0  0  0  0  0  0  0  0  0  0  0  0
   20.9234   21.1434   22.1440 C   0  0  0  0  0  0  0  0  0  0  0  0
   20.1463   21.9169   22.0888 H   0  0  0  0  0  0  0  0  0  0  0  0
   21.8765   21.6364   22.3752 H   0  0  0  0  0  0  0  0  0  0  0  0
   21.0162   20.6794   21.1535 H   0  0  0  0  0  0  0  0  0  0  0  0
  1  2  1  0  0  0  0
  1  3  2  0  0  0  0
  1  4  1  0  0  0  0
  4  5  1  0  0  0  0
  4  6  2  0  0  0  0
  6  7  1  0  0  0  0
  6  8  1  0  0  0  0
  8  9  1  0  0  0  0
  8 10  1  0  0  0  0
  8 11  1  0  0  0  0
 11 12  1  0  0  0  0
 11 13  1  0  0  0  0
 11 14  1  0  0  0  0
 14 15  1  0  0  0  0
 14 16  1  0  0  0  0
 14 17  1  0  0  0  0
M  END
> <VConfSearch Rank>
407

> <Conf_Id>
3

> <Delta U+W>
0.531

> <U+W>
-52.878

> <U>
10.067

> <W>
-62.945

> <W(PB)>
-64.982

> <W(SA)>
2.037

> <Valence>
2.779

> <Coulomb>
6.474

> <VdW>
0.815

> <VdW6>
-5.088

> <VdW12>
5.902

> <Bond>
0.078

> <Angle>
2.651

> <Pdih>
0.050

> <Idih>
0.000

> <Tether>
0.000

$$$$
VeraChem MOL file


 17 16  0  0  0  0  0  0  0  0999 V2000     
   22.9027   19.7785   21.7645 C   0  0  0  0  0  0  0  0  0  0  0  0
   23.4836   20.2888   20.8264 O   0  5  0  0  0  0  0  0  0  0  0  0
   23.4724   19.1218   22.6157 O   0  0  0  0  0  0  0  0  0  0  0  0
   21.4316   19.9828   21.8554 C   0  0  0  0  0  0  0  0  0  0  0  0
   20.9862   20.5793   21.0626 H   0  0  0  0  0  0  0  0  0  0  0  0
   20.6595   19.4724   22.8417 C   0  0  0  0  0  0  0  0  0  0  0  0
   21.0971   18.8706   23.6378 H   0  0  0  0  0  0  0  0  0  0  0  0
   19.1616   19.6798   22.9300 C   0  0  0  0  0  0  0  0  0  0  0  0
   18.8500   20.5212   22.2962 H   0  0  0  0  0  0  0  0  0  0  0  0
   18.8986   19.9591   23.9590 H   0  0  0  0  0  0  0  0  0  0  0  0
   18.3703   18.4132   22.5370 C   0  0  0  0  0  0  0  0  0  0  0  0
   18.6833   17.5704   23.1689 H   0  0  0  0  0  0  0  0  0  0  0  0
   17.3035   18.5792   22.7413 H   0  0  0  0  0  0  0  0  0  0  0  0
   18.5454   18.0412   21.0492 C   0  0  0  0  0  0  0  0  0  0  0  0
   19.5927   17.8047   20.8206 H   0  0  0  0  0  0  0  0  0  0  0  0
   17.9393   17.1614   20.7972 H   0  0  0  0  0  0  0  0  0  0  0  0
   18.2310   18.8674   20.3983 H   0  0  0  0  0  0  0  0  0  0  0  0
  1  2  1  0  0  0  0
  1  3  2  0  0  0  0
  1  4  1  0  0  0  0
  4  5  1  0  0  0  0
  4  6  2  0  0  0  0
  6  7  1  0  0  0  0
  6  8  1  0  0  0  0
  8  9  1  0  0  0  0
  8 10  1  0  0  0  0
  8 11  1  0  0  0  0
 11 12  1  0  0  0  0
 11 13  1  0  0  0  0
 11 14  1  0  0  0  0
 14 15  1  0  0  0  0
 14 16  1  0  0  0  0
 14 17  1  0  0  0  0
M  END
> <VConfSearch Rank>
408

> <Conf_Id>
45

> <Delta U+W>
0.562

> <U+W>
-52.846

> <U>
10.243

> <W>
-63.089

> <W(PB)>
-65.116

> <W(SA)>
2.026

> <Valence>
2.822

> <Coulomb>
6.637

> <VdW>
0.785

> <VdW6>
-5.216

> <VdW12>
6.001

> <Bond>
0.080

> <Angle>
2.678

> <Pdih>
0.064

> <Idih>
0.000

> <Tether>
0.000

$$$$
VeraChem MOL file


 17 16  0  0  0  0  0  0  0  0999 V2000     
   22.9678   20.6599   22.3021 C   0  0  0  0  0  0  0  0  0  0  0  0
   24.0622   20.3377   21.8824 O   0  5  0  0  0  0  0  0  0  0  0  0
   22.8122   21.5166   23.1520 O   0  0  0  0  0  0  0  0  0  0  0  0
   21.7815   19.9630   21.7353 C   0  0  0  0  0  0  0  0  0  0  0  0
   21.9902   19.2087   20.9801 H   0  0  0  0  0  0  0  0  0  0  0  0
   20.5072   20.2188   22.1091 C   0  0  0  0  0  0  0  0  0  0  0  0
   20.2870   20.9708   22.8666 H   0  0  0  0  0  0  0  0  0  0  0  0
   19.3064   19.5039   21.5293 C   0  0  0  0  0  0  0  0  0  0  0  0
   19.4531   19.3351   20.4537 H   0  0  0  0  0  0  0  0  0  0  0  0
   18.4167   20.1405   21.6272 H   0  0  0  0  0  0  0  0  0  0  0  0
   19.0579   18.1569   22.2384 C   0  0  0  0  0  0  0  0  0  0  0  0
   19.9457   17.5172   22.1378 H   0  0  0  0  0  0  0  0  0  0  0  0
   18.9095   18.3285   23.3136 H   0  0  0  0  0  0  0  0  0  0  0  0
   17.8298   17.4262   21.6594 C   0  0  0  0  0  0  0  0  0  0  0  0
   16.9212   18.0315   21.7760 H   0  0  0  0  0  0  0  0  0  0  0  0
   17.9662   17.2148   20.5907 H   0  0  0  0  0  0  0  0  0  0  0  0
   17.6691   16.4709   22.1759 H   0  0  0  0  0  0  0  0  0  0  0  0
  1  2  1  0  0  0  0
  1  3  2  0  0  0  0
  1  4  1  0  0  0  0
  4  5  1  0  0  0  0
  4  6  2  0  0  0  0
  6  7  1  0  0  0  0
  6  8  1  0  0  0  0
  8  9  1  0  0  0  0
  8 10  1  0  0  0  0
  8 11  1  0  0  0  0
 11 12  1  0  0  0  0
 11 13  1  0  0  0  0
 11 14  1  0  0  0  0
 14 15  1  0  0  0  0
 14 16  1  0  0  0  0
 14 17  1  0  0  0  0
M  END
> <VConfSearch Rank>
409

> <Conf_Id>
36

> <Delta U+W>
0.000

> <U+W>
-53.409

> <U>
9.048

> <W>
-62.457

> <W(PB)>
-64.540

> <W(SA)>
2.084

> <Valence>
2.652

> <Coulomb>
5.578

> <VdW>
0.818

> <VdW6>
-4.534

> <VdW12>
5.352

> <Bond>
0.063

> <Angle>
2.579

> <Pdih>
0.010

> <Idih>
0.000

> <Tether>
0.000

$$$$
VeraChem MOL file


 17 16  0  0  0  0  0  0  0  0999 V2000     
   19.0133   16.6543   24.0178 C   0  0  0  0  0  0  0  0  0  0  0  0
   18.2327   15.9544   23.4004 O   0  5  0  0  0  0  0  0  0  0  0  0
   19.1790   16.5581   25.2182 O   0  0  0  0  0  0  0  0  0  0  0  0
   19.8126   17.6793   23.2934 C   0  0  0  0  0  0  0  0  0  0  0  0
   20.4911   18.2707   23.9040 H   0  0  0  0  0  0  0  0  0  0  0  0
   19.7298   17.8966   21.9611 C   0  0  0  0  0  0  0  0  0  0  0  0
   19.0517   17.3113   21.3403 H   0  0  0  0  0  0  0  0  0  0  0  0
   20.5449   18.9424   21.2324 C   0  0  0  0  0  0  0  0  0  0  0  0
   20.6535   18.6551   20.1779 H   0  0  0  0  0  0  0  0  0  0  0  0
   21.5599   18.9859   21.6505 H   0  0  0  0  0  0  0  0  0  0  0  0
   19.8845   20.3333   21.3231 C   0  0  0  0  0  0  0  0  0  0  0  0
   18.8704   20.2877   20.9024 H   0  0  0  0  0  0  0  0  0  0  0  0
   19.7789   20.6240   22.3776 H   0  0  0  0  0  0  0  0  0  0  0  0
   20.7046   21.4034   20.5749 C   0  0  0  0  0  0  0  0  0  0  0  0
   20.7987   21.1530   19.5100 H   0  0  0  0  0  0  0  0  0  0  0  0
   20.2196   22.3853   20.6504 H   0  0  0  0  0  0  0  0  0  0  0  0
   21.7143   21.4908   20.9971 H   0  0  0  0  0  0  0  0  0  0  0  0
  1  2  1  0  0  0  0
  1  3  2  0  0  0  0
  1  4  1  0  0  0  0
  4  5  1  0  0  0  0
  4  6  2  0  0  0  0
  6  7  1  0  0  0  0
  6  8  1  0  0  0  0
  8  9  1  0  0  0  0
  8 10  1  0  0  0  0
  8 11  1  0  0  0  0
 11 12  1  0  0  0  0
 11 13  1  0  0  0  0
 11 14  1  0  0  0  0
 14 15  1  0  0  0  0
 14 16  1  0  0  0  0
 14 17  1  0  0  0  0
M  END
> <VConfSearch Rank>
410

> <Conf_Id>
1

> <Delta U+W>
0.030

> <U+W>
-53.378

> <U>
9.048

> <W>
-62.426

> <W(PB)>
-64.506

> <W(SA)>
2.080

> <Valence>
2.652

> <Coulomb>
5.578

> <VdW>
0.818

> <VdW6>
-4.535

> <VdW12>
5.352

> <Bond>
0.063

> <Angle>
2.579

> <Pdih>
0.010

> <Idih>
0.000

> <Tether>
0.000

$$$$
VeraChem MOL file


 17 16  0  0  0  0  0  0  0  0999 V2000     
   19.7879   19.1399   18.9770 C   0  0  0  0  0  0  0  0  0  0  0  0
   20.9593   19.2632   18.6723 O   0  5  0  0  0  0  0  0  0  0  0  0
   18.9317   18.8010   18.1833 O   0  0  0  0  0  0  0  0  0  0  0  0
   19.3590   19.4135   20.3754 C   0  0  0  0  0  0  0  0  0  0  0  0
   18.2987   19.2854   20.5804 H   0  0  0  0  0  0  0  0  0  0  0  0
   20.2023   19.7961   21.3611 C   0  0  0  0  0  0  0  0  0  0  0  0
   21.2670   19.9242   21.1674 H   0  0  0  0  0  0  0  0  0  0  0  0
   19.7591   20.0691   22.7831 C   0  0  0  0  0  0  0  0  0  0  0  0
   18.8025   20.6089   22.7735 H   0  0  0  0  0  0  0  0  0  0  0  0
   20.4806   20.7335   23.2775 H   0  0  0  0  0  0  0  0  0  0  0  0
   19.6010   18.7732   23.6083 C   0  0  0  0  0  0  0  0  0  0  0  0
   19.1789   19.0227   24.5915 H   0  0  0  0  0  0  0  0  0  0  0  0
   18.8786   18.1068   23.1167 H   0  0  0  0  0  0  0  0  0  0  0  0
   20.9401   18.0318   23.8076 C   0  0  0  0  0  0  0  0  0  0  0  0
   21.6744   18.6754   24.3094 H   0  0  0  0  0  0  0  0  0  0  0  0
   20.7969   17.1356   24.4252 H   0  0  0  0  0  0  0  0  0  0  0  0
   21.3635   17.7134   22.8461 H   0  0  0  0  0  0  0  0  0  0  0  0
  1  2  1  0  0  0  0
  1  3  2  0  0  0  0
  1  4  1  0  0  0  0
  4  5  1  0  0  0  0
  4  6  2  0  0  0  0
  6  7  1  0  0  0  0
  6  8  1  0  0  0  0
  8  9  1  0  0  0  0
  8 10  1  0  0  0  0
  8 11  1  0  0  0  0
 11 12  1  0  0  0  0
 11 13  1  0  0  0  0
 11 14  1  0  0  0  0
 14 15  1  0  0  0  0
 14 16  1  0  0  0  0
 14 17  1  0  0  0  0
M  END
> <VConfSearch Rank>
411

> <Conf_Id>
3

> <Delta U+W>
0.531

> <U+W>
-52.878

> <U>
10.067

> <W>
-62.945

> <W(PB)>
-64.982

> <W(SA)>
2.037

> <Valence>
2.779

> <Coulomb>
6.474

> <VdW>
0.815

> <VdW6>
-5.088

> <VdW12>
5.902

> <Bond>
0.078

> <Angle>
2.651

> <Pdih>
0.050

> <Idih>
0.000

> <Tether>
0.000

$$$$
VeraChem MOL file


 17 16  0  0  0  0  0  0  0  0999 V2000     
   17.9457   17.4241   20.5984 C   0  0  0  0  0  0  0  0  0  0  0  0
   16.7834   17.6670   20.3381 O   0  5  0  0  0  0  0  0  0  0  0  0
   18.3970   16.2942   20.6128 O   0  0  0  0  0  0  0  0  0  0  0  0
   18.8363   18.5756   20.9063 C   0  0  0  0  0  0  0  0  0  0  0  0
   18.3693   19.5573   20.8758 H   0  0  0  0  0  0  0  0  0  0  0  0
   20.1475   18.4528   21.2147 C   0  0  0  0  0  0  0  0  0  0  0  0
   20.6225   17.4727   21.2511 H   0  0  0  0  0  0  0  0  0  0  0  0
   21.0510   19.6269   21.5304 C   0  0  0  0  0  0  0  0  0  0  0  0
   20.6001   20.5660   21.1819 H   0  0  0  0  0  0  0  0  0  0  0  0
   21.9914   19.5150   20.9744 H   0  0  0  0  0  0  0  0  0  0  0  0
   21.3699   19.7323   23.0378 C   0  0  0  0  0  0  0  0  0  0  0  0
   21.8185   18.7923   23.3878 H   0  0  0  0  0  0  0  0  0  0  0  0
   22.1246   20.5161   23.1906 H   0  0  0  0  0  0  0  0  0  0  0  0
   20.1236   20.0619   23.8869 C   0  0  0  0  0  0  0  0  0  0  0  0
   19.3706   19.2669   23.8104 H   0  0  0  0  0  0  0  0  0  0  0  0
   20.3946   20.1677   24.9454 H   0  0  0  0  0  0  0  0  0  0  0  0
   19.6629   21.0028   23.5590 H   0  0  0  0  0  0  0  0  0  0  0  0
  1  2  1  0  0  0  0
  1  3  2  0  0  0  0
  1  4  1  0  0  0  0
  4  5  1  0  0  0  0
  4  6  2  0  0  0  0
  6  7  1  0  0  0  0
  6  8  1  0  0  0  0
  8  9  1  0  0  0  0
  8 10  1  0  0  0  0
  8 11  1  0  0  0  0
 11 12  1  0  0  0  0
 11 13  1  0  0  0  0
 11 14  1  0  0  0  0
 14 15  1  0  0  0  0
 14 16  1  0  0  0  0
 14 17  1  0  0  0  0
M  END
> <VConfSearch Rank>
412

> <Conf_Id>
45

> <Delta U+W>
0.562

> <U+W>
-52.846

> <U>
10.243

> <W>
-63.089

> <W(PB)>
-65.116

> <W(SA)>
2.026

> <Valence>
2.822

> <Coulomb>
6.637

> <VdW>
0.785

> <VdW6>
-5.216

> <VdW12>
6.001

> <Bond>
0.080

> <Angle>
2.678

> <Pdih>
0.064

> <Idih>
0.000

> <Tether>
0.000

$$$$
VeraChem MOL file


 17 16  0  0  0  0  0  0  0  0999 V2000     
   21.2034   17.1901   24.4031 C   0  0  0  0  0  0  0  0  0  0  0  0
   20.7852   16.1311   24.8288 O   0  5  0  0  0  0  0  0  0  0  0  0
   22.0394   17.8533   24.9875 O   0  0  0  0  0  0  0  0  0  0  0  0
   20.6546   17.6752   23.1078 C   0  0  0  0  0  0  0  0  0  0  0  0
   19.9113   17.0353   22.6378 H   0  0  0  0  0  0  0  0  0  0  0  0
   21.0270   18.8339   22.5181 C   0  0  0  0  0  0  0  0  0  0  0  0
   21.7692   19.4838   22.9814 H   0  0  0  0  0  0  0  0  0  0  0  0
   20.4624   19.3211   21.2016 C   0  0  0  0  0  0  0  0  0  0  0  0
   20.3193   18.4735   20.5176 H   0  0  0  0  0  0  0  0  0  0  0  0
   21.1837   19.9941   20.7186 H   0  0  0  0  0  0  0  0  0  0  0  0
   19.1231   20.0590   21.4033 C   0  0  0  0  0  0  0  0  0  0  0  0
   18.3989   19.3857   21.8827 H   0  0  0  0  0  0  0  0  0  0  0  0
   19.2692   20.9075   22.0861 H   0  0  0  0  0  0  0  0  0  0  0  0
   18.5455   20.5671   20.0670 C   0  0  0  0  0  0  0  0  0  0  0  0
   19.2370   21.2681   19.5812 H   0  0  0  0  0  0  0  0  0  0  0  0
   18.3609   19.7336   19.3766 H   0  0  0  0  0  0  0  0  0  0  0  0
   17.5935   21.0887   20.2305 H   0  0  0  0  0  0  0  0  0  0  0  0
  1  2  1  0  0  0  0
  1  3  2  0  0  0  0
  1  4  1  0  0  0  0
  4  5  1  0  0  0  0
  4  6  2  0  0  0  0
  6  7  1  0  0  0  0
  6  8  1  0  0  0  0
  8  9  1  0  0  0  0
  8 10  1  0  0  0  0
  8 11  1  0  0  0  0
 11 12  1  0  0  0  0
 11 13  1  0  0  0  0
 11 14  1  0  0  0  0
 14 15  1  0  0  0  0
 14 16  1  0  0  0  0
 14 17  1  0  0  0  0
M  END
> <VConfSearch Rank>
413

> <Conf_Id>
36

> <Delta U+W>
0.000

> <U+W>
-53.409

> <U>
9.048

> <W>
-62.457

> <W(PB)>
-64.540

> <W(SA)>
2.084

> <Valence>
2.652

> <Coulomb>
5.578

> <VdW>
0.818

> <VdW6>
-4.534

> <VdW12>
5.352

> <Bond>
0.063

> <Angle>
2.579

> <Pdih>
0.010

> <Idih>
0.000

> <Tether>
0.000

$$$$
VeraChem MOL file


 17 16  0  0  0  0  0  0  0  0999 V2000     
   22.3690   21.4896   21.6141 C   0  0  0  0  0  0  0  0  0  0  0  0
   21.7875   22.5584   21.6229 O   0  5  0  0  0  0  0  0  0  0  0  0
   23.5454   21.3806   21.3281 O   0  0  0  0  0  0  0  0  0  0  0  0
   21.6291   20.2476   21.9666 C   0  0  0  0  0  0  0  0  0  0  0  0
   22.2074   19.3268   21.9394 H   0  0  0  0  0  0  0  0  0  0  0  0
   20.3196   20.2202   22.3034 C   0  0  0  0  0  0  0  0  0  0  0  0
   19.7303   21.1366   22.3317 H   0  0  0  0  0  0  0  0  0  0  0  0
   19.5742   18.9524   22.6588 C   0  0  0  0  0  0  0  0  0  0  0  0
   18.7149   19.1977   23.2974 H   0  0  0  0  0  0  0  0  0  0  0  0
   20.2218   18.2885   23.2476 H   0  0  0  0  0  0  0  0  0  0  0  0
   19.0845   18.2155   21.3954 C   0  0  0  0  0  0  0  0  0  0  0  0
   18.4353   18.8807   20.8093 H   0  0  0  0  0  0  0  0  0  0  0  0
   19.9435   17.9657   20.7572 H   0  0  0  0  0  0  0  0  0  0  0  0
   18.3156   16.9267   21.7495 C   0  0  0  0  0  0  0  0  0  0  0  0
   17.4325   17.1516   22.3618 H   0  0  0  0  0  0  0  0  0  0  0  0
   17.9755   16.4167   20.8388 H   0  0  0  0  0  0  0  0  0  0  0  0
   18.9532   16.2303   22.3098 H   0  0  0  0  0  0  0  0  0  0  0  0
  1  2  1  0  0  0  0
  1  3  2  0  0  0  0
  1  4  1  0  0  0  0
  4  5  1  0  0  0  0
  4  6  2  0  0  0  0
  6  7  1  0  0  0  0
  6  8  1  0  0  0  0
  8  9  1  0  0  0  0
  8 10  1  0  0  0  0
  8 11  1  0  0  0  0
 11 12  1  0  0  0  0
 11 13  1  0  0  0  0
 11 14  1  0  0  0  0
 14 15  1  0  0  0  0
 14 16  1  0  0  0  0
 14 17  1  0  0  0  0
M  END
> <VConfSearch Rank>
414

> <Conf_Id>
1

> <Delta U+W>
0.030

> <U+W>
-53.378

> <U>
9.048

> <W>
-62.426

> <W(PB)>
-64.506

> <W(SA)>
2.080

> <Valence>
2.652

> <Coulomb>
5.578

> <VdW>
0.818

> <VdW6>
-4.535

> <VdW12>
5.352

> <Bond>
0.063

> <Angle>
2.579

> <Pdih>
0.010

> <Idih>
0.000

> <Tether>
0.000

$$$$
VeraChem MOL file


 17 16  0  0  0  0  0  0  0  0999 V2000     
   17.3817   20.6638   22.3231 C   0  0  0  0  0  0  0  0  0  0  0  0
   17.0416   20.7253   21.1565 O   0  5  0  0  0  0  0  0  0  0  0  0
   16.6245   20.8993   23.2445 O   0  0  0  0  0  0  0  0  0  0  0  0
   18.7814   20.2895   22.6622 C   0  0  0  0  0  0  0  0  0  0  0  0
   19.0196   20.2540   23.7227 H   0  0  0  0  0  0  0  0  0  0  0  0
   19.7284   20.0003   21.7411 C   0  0  0  0  0  0  0  0  0  0  0  0
   19.4997   20.0295   20.6760 H   0  0  0  0  0  0  0  0  0  0  0  0
   21.1501   19.6163   22.0939 C   0  0  0  0  0  0  0  0  0  0  0  0
   21.5051   20.2414   22.9245 H   0  0  0  0  0  0  0  0  0  0  0  0
   21.8149   19.8278   21.2457 H   0  0  0  0  0  0  0  0  0  0  0  0
   21.2758   18.1288   22.4902 C   0  0  0  0  0  0  0  0  0  0  0  0
   22.3006   17.9344   22.8354 H   0  0  0  0  0  0  0  0  0  0  0  0
   20.6126   17.9144   23.3396 H   0  0  0  0  0  0  0  0  0  0  0  0
   20.9481   17.1756   21.3211 C   0  0  0  0  0  0  0  0  0  0  0  0
   21.6081   17.3636   20.4643 H   0  0  0  0  0  0  0  0  0  0  0  0
   21.0798   16.1298   21.6274 H   0  0  0  0  0  0  0  0  0  0  0  0
   19.9095   17.3001   20.9877 H   0  0  0  0  0  0  0  0  0  0  0  0
  1  2  1  0  0  0  0
  1  3  2  0  0  0  0
  1  4  1  0  0  0  0
  4  5  1  0  0  0  0
  4  6  2  0  0  0  0
  6  7  1  0  0  0  0
  6  8  1  0  0  0  0
  8  9  1  0  0  0  0
  8 10  1  0  0  0  0
  8 11  1  0  0  0  0
 11 12  1  0  0  0  0
 11 13  1  0  0  0  0
 11 14  1  0  0  0  0
 14 15  1  0  0  0  0
 14 16  1  0  0  0  0
 14 17  1  0  0  0  0
M  END
> <VConfSearch Rank>
415

> <Conf_Id>
3

> <Delta U+W>
0.531

> <U+W>
-52.878

> <U>
10.067

> <W>
-62.945

> <W(PB)>
-64.982

> <W(SA)>
2.037

> <Valence>
2.779

> <Coulomb>
6.474

> <VdW>
0.815

> <VdW6>
-5.088

> <VdW12>
5.902

> <Bond>
0.078

> <Angle>
2.651

> <Pdih>
0.050

> <Idih>
0.000

> <Tether>
0.000

$$$$
VeraChem MOL file


 17 16  0  0  0  0  0  0  0  0999 V2000     
   18.8896   19.1718   24.8927 C   0  0  0  0  0  0  0  0  0  0  0  0
   19.4611   19.4152   25.9376 O   0  5  0  0  0  0  0  0  0  0  0  0
   17.8384   18.5610   24.8416 O   0  0  0  0  0  0  0  0  0  0  0  0
   19.5212   19.6550   23.6351 C   0  0  0  0  0  0  0  0  0  0  0  0
   20.4588   20.1934   23.7522 H   0  0  0  0  0  0  0  0  0  0  0  0
   18.9985   19.4541   22.4038 C   0  0  0  0  0  0  0  0  0  0  0  0
   18.0614   18.9125   22.2772 H   0  0  0  0  0  0  0  0  0  0  0  0
   19.6454   19.9448   21.1251 C   0  0  0  0  0  0  0  0  0  0  0  0
   20.3918   20.7209   21.3427 H   0  0  0  0  0  0  0  0  0  0  0  0
   18.8815   20.4234   20.4978 H   0  0  0  0  0  0  0  0  0  0  0  0
   20.3050   18.8002   20.3252 C   0  0  0  0  0  0  0  0  0  0  0  0
   19.5597   18.0222   20.1093 H   0  0  0  0  0  0  0  0  0  0  0  0
   20.6425   19.1894   19.3547 H   0  0  0  0  0  0  0  0  0  0  0  0
   21.5090   18.1769   21.0632 C   0  0  0  0  0  0  0  0  0  0  0  0
   21.1986   17.7192   22.0115 H   0  0  0  0  0  0  0  0  0  0  0  0
   21.9756   17.3956   20.4496 H   0  0  0  0  0  0  0  0  0  0  0  0
   22.2709   18.9362   21.2826 H   0  0  0  0  0  0  0  0  0  0  0  0
  1  2  1  0  0  0  0
  1  3  2  0  0  0  0
  1  4  1  0  0  0  0
  4  5  1  0  0  0  0
  4  6  2  0  0  0  0
  6  7  1  0  0  0  0
  6  8  1  0  0  0  0
  8  9  1  0  0  0  0
  8 10  1  0  0  0  0
  8 11  1  0  0  0  0
 11 12  1  0  0  0  0
 11 13  1  0  0  0  0
 11 14  1  0  0  0  0
 14 15  1  0  0  0  0
 14 16  1  0  0  0  0
 14 17  1  0  0  0  0
M  END
> <VConfSearch Rank>
416

> <Conf_Id>
45

> <Delta U+W>
0.562

> <U+W>
-52.846

> <U>
10.243

> <W>
-63.089

> <W(PB)>
-65.116

> <W(SA)>
2.026

> <Valence>
2.822

> <Coulomb>
6.637

> <VdW>
0.785

> <VdW6>
-5.216

> <VdW12>
6.001

> <Bond>
0.080

> <Angle>
2.678

> <Pdih>
0.064

> <Idih>
0.000

> <Tether>
0.000

$$$$
VeraChem MOL file


 17 16  0  0  0  0  0  0  0  0999 V2000     
   19.1468   16.0833   23.1193 C   0  0  0  0  0  0  0  0  0  0  0  0
   18.0541   15.5531   23.1705 O   0  5  0  0  0  0  0  0  0  0  0  0
   20.1142   15.6626   23.7255 O   0  0  0  0  0  0  0  0  0  0  0  0
   19.2826   17.2977   22.2702 C   0  0  0  0  0  0  0  0  0  0  0  0
   18.3804   17.6204   21.7557 H   0  0  0  0  0  0  0  0  0  0  0  0
   20.4359   17.9883   22.1215 C   0  0  0  0  0  0  0  0  0  0  0  0
   21.3452   17.6750   22.6342 H   0  0  0  0  0  0  0  0  0  0  0  0
   20.5651   19.2237   21.2577 C   0  0  0  0  0  0  0  0  0  0  0  0
   19.9696   19.1058   20.3421 H   0  0  0  0  0  0  0  0  0  0  0  0
   21.6093   19.3416   20.9382 H   0  0  0  0  0  0  0  0  0  0  0  0
   20.1110   20.4886   22.0146 C   0  0  0  0  0  0  0  0  0  0  0  0
   19.0650   20.3740   22.3314 H   0  0  0  0  0  0  0  0  0  0  0  0
   20.7094   20.6055   22.9289 H   0  0  0  0  0  0  0  0  0  0  0  0
   20.2484   21.7538   21.1441 C   0  0  0  0  0  0  0  0  0  0  0  0
   21.2916   21.9099   20.8396 H   0  0  0  0  0  0  0  0  0  0  0  0
   19.6345   21.6752   20.2372 H   0  0  0  0  0  0  0  0  0  0  0  0
   19.9208   22.6425   21.6990 H   0  0  0  0  0  0  0  0  0  0  0  0
  1  2  1  0  0  0  0
  1  3  2  0  0  0  0
  1  4  1  0  0  0  0
  4  5  1  0  0  0  0
  4  6  2  0  0  0  0
  6  7  1  0  0  0  0
  6  8  1  0  0  0  0
  8  9  1  0  0  0  0
  8 10  1  0  0  0  0
  8 11  1  0  0  0  0
 11 12  1  0  0  0  0
 11 13  1  0  0  0  0
 11 14  1  0  0  0  0
 14 15  1  0  0  0  0
 14 16  1  0  0  0  0
 14 17  1  0  0  0  0
M  END
> <VConfSearch Rank>
417

> <Conf_Id>
36

> <Delta U+W>
0.000

> <U+W>
-53.409

> <U>
9.048

> <W>
-62.457

> <W(PB)>
-64.540

> <W(SA)>
2.084

> <Valence>
2.652

> <Coulomb>
5.578

> <VdW>
0.818

> <VdW6>
-4.534

> <VdW12>
5.352

> <Bond>
0.063

> <Angle>
2.579

> <Pdih>
0.010

> <Idih>
0.000

> <Tether>
0.000

$$$$
VeraChem MOL file


 17 16  0  0  0  0  0  0  0  0999 V2000     
   20.7226   15.8041   22.1517 C   0  0  0  0  0  0  0  0  0  0  0  0
   19.6667   15.2284   22.3363 O   0  5  0  0  0  0  0  0  0  0  0  0
   21.8017   15.2558   22.2639 O   0  0  0  0  0  0  0  0  0  0  0  0
   20.7186   17.2422   21.7695 C   0  0  0  0  0  0  0  0  0  0  0  0
   21.6955   17.6961   21.6195 H   0  0  0  0  0  0  0  0  0  0  0  0
   19.5942   17.9766   21.6104 C   0  0  0  0  0  0  0  0  0  0  0  0
   18.6103   17.5324   21.7603 H   0  0  0  0  0  0  0  0  0  0  0  0
   19.5989   19.4393   21.2234 C   0  0  0  0  0  0  0  0  0  0  0  0
   18.6481   19.6939   20.7359 H   0  0  0  0  0  0  0  0  0  0  0  0
   20.3896   19.6298   20.4849 H   0  0  0  0  0  0  0  0  0  0  0  0
   19.8068   20.3455   22.4540 C   0  0  0  0  0  0  0  0  0  0  0  0
   19.0136   20.1547   23.1902 H   0  0  0  0  0  0  0  0  0  0  0  0
   20.7597   20.0949   22.9406 H   0  0  0  0  0  0  0  0  0  0  0  0
   19.8036   21.8387   22.0692 C   0  0  0  0  0  0  0  0  0  0  0  0
   18.8486   22.1238   21.6086 H   0  0  0  0  0  0  0  0  0  0  0  0
   19.9526   22.4671   22.9569 H   0  0  0  0  0  0  0  0  0  0  0  0
   20.6083   22.0624   21.3566 H   0  0  0  0  0  0  0  0  0  0  0  0
  1  2  1  0  0  0  0
  1  3  2  0  0  0  0
  1  4  1  0  0  0  0
  4  5  1  0  0  0  0
  4  6  2  0  0  0  0
  6  7  1  0  0  0  0
  6  8  1  0  0  0  0
  8  9  1  0  0  0  0
  8 10  1  0  0  0  0
  8 11  1  0  0  0  0
 11 12  1  0  0  0  0
 11 13  1  0  0  0  0
 11 14  1  0  0  0  0
 14 15  1  0  0  0  0
 14 16  1  0  0  0  0
 14 17  1  0  0  0  0
M  END
> <VConfSearch Rank>
418

> <Conf_Id>
1

> <Delta U+W>
0.030

> <U+W>
-53.378

> <U>
9.048

> <W>
-62.426

> <W(PB)>
-64.506

> <W(SA)>
2.080

> <Valence>
2.652

> <Coulomb>
5.578

> <VdW>
0.818

> <VdW6>
-4.535

> <VdW12>
5.352

> <Bond>
0.063

> <Angle>
2.579

> <Pdih>
0.010

> <Idih>
0.000

> <Tether>
0.000

$$$$
VeraChem MOL file


 17 16  0  0  0  0  0  0  0  0999 V2000     
   21.1707   21.9458   22.0628 C   0  0  0  0  0  0  0  0  0  0  0  0
   22.0231   21.8415   21.2008 O   0  5  0  0  0  0  0  0  0  0  0  0
   20.7754   23.0196   22.4733 O   0  0  0  0  0  0  0  0  0  0  0  0
   20.5734   20.7201   22.6584 C   0  0  0  0  0  0  0  0  0  0  0  0
   19.8184   20.8837   23.4238 H   0  0  0  0  0  0  0  0  0  0  0  0
   20.9164   19.4627   22.2974 C   0  0  0  0  0  0  0  0  0  0  0  0
   21.6693   19.2873   21.5293 H   0  0  0  0  0  0  0  0  0  0  0  0
   20.3013   18.2197   22.9055 C   0  0  0  0  0  0  0  0  0  0  0  0
   20.1800   18.3606   23.9880 H   0  0  0  0  0  0  0  0  0  0  0  0
   20.9832   17.3676   22.7821 H   0  0  0  0  0  0  0  0  0  0  0  0
   18.9298   17.8779   22.2827 C   0  0  0  0  0  0  0  0  0  0  0  0
   18.4861   17.0357   22.8314 H   0  0  0  0  0  0  0  0  0  0  0  0
   18.2449   18.7283   22.4057 H   0  0  0  0  0  0  0  0  0  0  0  0
   19.0349   17.5070   20.7880 C   0  0  0  0  0  0  0  0  0  0  0  0
   19.7056   16.6502   20.6423 H   0  0  0  0  0  0  0  0  0  0  0  0
   18.0491   17.2379   20.3870 H   0  0  0  0  0  0  0  0  0  0  0  0
   19.4201   18.3483   20.1973 H   0  0  0  0  0  0  0  0  0  0  0  0
  1  2  1  0  0  0  0
  1  3  2  0  0  0  0
  1  4  1  0  0  0  0
  4  5  1  0  0  0  0
  4  6  2  0  0  0  0
  6  7  1  0  0  0  0
  6  8  1  0  0  0  0
  8  9  1  0  0  0  0
  8 10  1  0  0  0  0
  8 11  1  0  0  0  0
 11 12  1  0  0  0  0
 11 13  1  0  0  0  0
 11 14  1  0  0  0  0
 14 15  1  0  0  0  0
 14 16  1  0  0  0  0
 14 17  1  0  0  0  0
M  END
> <VConfSearch Rank>
419

> <Conf_Id>
3

> <Delta U+W>
0.531

> <U+W>
-52.878

> <U>
10.067

> <W>
-62.945

> <W(PB)>
-64.982

> <W(SA)>
2.037

> <Valence>
2.779

> <Coulomb>
6.474

> <VdW>
0.815

> <VdW6>
-5.088

> <VdW12>
5.902

> <Bond>
0.078

> <Angle>
2.651

> <Pdih>
0.050

> <Idih>
0.000

> <Tether>
0.000

$$$$
VeraChem MOL file


 17 16  0  0  0  0  0  0  0  0999 V2000     
   18.2088   21.2728   23.2028 C   0  0  0  0  0  0  0  0  0  0  0  0
   17.3618   21.2092   24.0725 O   0  5  0  0  0  0  0  0  0  0  0  0
   18.2430   22.1672   22.3786 O   0  0  0  0  0  0  0  0  0  0  0  0
   19.2395   20.2002   23.1673 C   0  0  0  0  0  0  0  0  0  0  0  0
   19.1506   19.4321   23.9320 H   0  0  0  0  0  0  0  0  0  0  0  0
   20.2372   20.1437   22.2557 C   0  0  0  0  0  0  0  0  0  0  0  0
   20.3314   20.9072   21.4838 H   0  0  0  0  0  0  0  0  0  0  0  0
   21.2834   19.0490   22.2205 C   0  0  0  0  0  0  0  0  0  0  0  0
   21.3113   18.5102   23.1774 H   0  0  0  0  0  0  0  0  0  0  0  0
   22.2750   19.5047   22.0978 H   0  0  0  0  0  0  0  0  0  0  0  0
   21.0461   18.0483   21.0683 C   0  0  0  0  0  0  0  0  0  0  0  0
   21.0154   18.5868   20.1109 H   0  0  0  0  0  0  0  0  0  0  0  0
   21.8985   17.3573   21.0124 H   0  0  0  0  0  0  0  0  0  0  0  0
   19.7481   17.2323   21.2482 C   0  0  0  0  0  0  0  0  0  0  0  0
   18.8658   17.8854   21.2440 H   0  0  0  0  0  0  0  0  0  0  0  0
   19.6327   16.5060   20.4333 H   0  0  0  0  0  0  0  0  0  0  0  0
   19.7604   16.6793   22.1964 H   0  0  0  0  0  0  0  0  0  0  0  0
  1  2  1  0  0  0  0
  1  3  2  0  0  0  0
  1  4  1  0  0  0  0
  4  5  1  0  0  0  0
  4  6  2  0  0  0  0
  6  7  1  0  0  0  0
  6  8  1  0  0  0  0
  8  9  1  0  0  0  0
  8 10  1  0  0  0  0
  8 11  1  0  0  0  0
 11 12  1  0  0  0  0
 11 13  1  0  0  0  0
 11 14  1  0  0  0  0
 14 15  1  0  0  0  0
 14 16  1  0  0  0  0
 14 17  1  0  0  0  0
M  END
> <VConfSearch Rank>
420

> <Conf_Id>
45

> <Delta U+W>
0.562

> <U+W>
-52.846

> <U>
10.243

> <W>
-63.089

> <W(PB)>
-65.116

> <W(SA)>
2.026

> <Valence>
2.822

> <Coulomb>
6.637

> <VdW>
0.785

> <VdW6>
-5.216

> <VdW12>
6.001

> <Bond>
0.080

> <Angle>
2.678

> <Pdih>
0.064

> <Idih>
0.000

> <Tether>
0.000

$$$$
VeraChem MOL file


 17 16  0  0  0  0  0  0  0  0999 V2000     
   20.0057   21.3000   24.4856 C   0  0  0  0  0  0  0  0  0  0  0  0
   19.3460   21.2897   25.5066 O   0  5  0  0  0  0  0  0  0  0  0  0
   20.6462   22.2687   24.1226 O   0  0  0  0  0  0  0  0  0  0  0  0
   20.0156   20.0614   23.6609 C   0  0  0  0  0  0  0  0  0  0  0  0
   19.4226   19.2330   24.0417 H   0  0  0  0  0  0  0  0  0  0  0  0
   20.7029   19.9322   22.5033 C   0  0  0  0  0  0  0  0  0  0  0  0
   21.2983   20.7566   22.1115 H   0  0  0  0  0  0  0  0  0  0  0  0
   20.7060   18.6696   21.6695 C   0  0  0  0  0  0  0  0  0  0  0  0
   20.7225   17.7874   22.3239 H   0  0  0  0  0  0  0  0  0  0  0  0
   21.6234   18.6290   21.0670 H   0  0  0  0  0  0  0  0  0  0  0  0
   19.4758   18.6063   20.7413 C   0  0  0  0  0  0  0  0  0  0  0  0
   18.5569   18.6426   21.3428 H   0  0  0  0  0  0  0  0  0  0  0  0
   19.4626   19.4887   20.0864 H   0  0  0  0  0  0  0  0  0  0  0  0
   19.4763   17.3267   19.8810 C   0  0  0  0  0  0  0  0  0  0  0  0
   20.3703   17.2809   19.2453 H   0  0  0  0  0  0  0  0  0  0  0  0
   19.4582   16.4288   20.5125 H   0  0  0  0  0  0  0  0  0  0  0  0
   18.5944   17.2994   19.2278 H   0  0  0  0  0  0  0  0  0  0  0  0
  1  2  1  0  0  0  0
  1  3  2  0  0  0  0
  1  4  1  0  0  0  0
  4  5  1  0  0  0  0
  4  6  2  0  0  0  0
  6  7  1  0  0  0  0
  6  8  1  0  0  0  0
  8  9  1  0  0  0  0
  8 10  1  0  0  0  0
  8 11  1  0  0  0  0
 11 12  1  0  0  0  0
 11 13  1  0  0  0  0
 11 14  1  0  0  0  0
 14 15  1  0  0  0  0
 14 16  1  0  0  0  0
 14 17  1  0  0  0  0
M  END
> <VConfSearch Rank>
421

> <Conf_Id>
36

> <Delta U+W>
0.000

> <U+W>
-53.409

> <U>
9.048

> <W>
-62.457

> <W(PB)>
-64.540

> <W(SA)>
2.084

> <Valence>
2.652

> <Coulomb>
5.578

> <VdW>
0.818

> <VdW6>
-4.534

> <VdW12>
5.352

> <Bond>
0.063

> <Angle>
2.579

> <Pdih>
0.010

> <Idih>
0.000

> <Tether>
0.000

$$$$
VeraChem MOL file


 17 16  0  0  0  0  0  0  0  0999 V2000     
   19.0745   16.9313   24.3263 C   0  0  0  0  0  0  0  0  0  0  0  0
   18.1561   16.2745   23.8729 O   0  5  0  0  0  0  0  0  0  0  0  0
   19.3881   16.9052   25.5004 O   0  0  0  0  0  0  0  0  0  0  0  0
   19.8642   17.8117   23.4232 C   0  0  0  0  0  0  0  0  0  0  0  0
   20.6707   18.3711   23.8918 H   0  0  0  0  0  0  0  0  0  0  0  0
   19.6264   17.9396   22.0980 C   0  0  0  0  0  0  0  0  0  0  0  0
   18.8196   17.3855   21.6187 H   0  0  0  0  0  0  0  0  0  0  0  0
   20.4332   18.8387   21.1869 C   0  0  0  0  0  0  0  0  0  0  0  0
   20.3732   18.4662   20.1554 H   0  0  0  0  0  0  0  0  0  0  0  0
   21.4941   18.8055   21.4700 H   0  0  0  0  0  0  0  0  0  0  0  0
   19.9255   20.2941   21.2404 C   0  0  0  0  0  0  0  0  0  0  0  0
   18.8648   20.3250   20.9548 H   0  0  0  0  0  0  0  0  0  0  0  0
   19.9887   20.6698   22.2712 H   0  0  0  0  0  0  0  0  0  0  0  0
   20.7369   21.2153   20.3073 C   0  0  0  0  0  0  0  0  0  0  0  0
   20.6647   20.8801   19.2643 H   0  0  0  0  0  0  0  0  0  0  0  0
   20.3614   22.2456   20.3588 H   0  0  0  0  0  0  0  0  0  0  0  0
   21.7973   21.2265   20.5914 H   0  0  0  0  0  0  0  0  0  0  0  0
  1  2  1  0  0  0  0
  1  3  2  0  0  0  0
  1  4  1  0  0  0  0
  4  5  1  0  0  0  0
  4  6  2  0  0  0  0
  6  7  1  0  0  0  0
  6  8  1  0  0  0  0
  8  9  1  0  0  0  0
  8 10  1  0  0  0  0
  8 11  1  0  0  0  0
 11 12  1  0  0  0  0
 11 13  1  0  0  0  0
 11 14  1  0  0  0  0
 14 15  1  0  0  0  0
 14 16  1  0  0  0  0
 14 17  1  0  0  0  0
M  END
> <VConfSearch Rank>
422

> <Conf_Id>
1

> <Delta U+W>
0.030

> <U+W>
-53.378

> <U>
9.048

> <W>
-62.426

> <W(PB)>
-64.506

> <W(SA)>
2.080

> <Valence>
2.652

> <Coulomb>
5.578

> <VdW>
0.818

> <VdW6>
-4.535

> <VdW12>
5.352

> <Bond>
0.063

> <Angle>
2.579

> <Pdih>
0.010

> <Idih>
0.000

> <Tether>
0.000

$$$$
VeraChem MOL file


 17 16  0  0  0  0  0  0  0  0999 V2000     
   23.0593   19.5795   22.0647 C   0  0  0  0  0  0  0  0  0  0  0  0
   23.4228   18.7256   21.2778 O   0  5  0  0  0  0  0  0  0  0  0  0
   23.7683   20.5054   22.4077 O   0  0  0  0  0  0  0  0  0  0  0  0
   21.6928   19.5071   22.6490 C   0  0  0  0  0  0  0  0  0  0  0  0
   21.4317   20.3004   23.3456 H   0  0  0  0  0  0  0  0  0  0  0  0
   20.7988   18.5352   22.3570 C   0  0  0  0  0  0  0  0  0  0  0  0
   21.0487   17.7375   21.6578 H   0  0  0  0  0  0  0  0  0  0  0  0
   19.4082   18.4702   22.9528 C   0  0  0  0  0  0  0  0  0  0  0  0
   19.4506   18.7386   24.0171 H   0  0  0  0  0  0  0  0  0  0  0  0
   19.0328   17.4389   22.9118 H   0  0  0  0  0  0  0  0  0  0  0  0
   18.4159   19.4098   22.2329 C   0  0  0  0  0  0  0  0  0  0  0  0
   17.4578   19.4004   22.7706 H   0  0  0  0  0  0  0  0  0  0  0  0
   18.7883   20.4429   22.2733 H   0  0  0  0  0  0  0  0  0  0  0  0
   18.1742   19.0014   20.7641 C   0  0  0  0  0  0  0  0  0  0  0  0
   17.7893   17.9753   20.7001 H   0  0  0  0  0  0  0  0  0  0  0  0
   17.4403   19.6687   20.2939 H   0  0  0  0  0  0  0  0  0  0  0  0
   19.1019   19.0568   20.1798 H   0  0  0  0  0  0  0  0  0  0  0  0
  1  2  1  0  0  0  0
  1  3  2  0  0  0  0
  1  4  1  0  0  0  0
  4  5  1  0  0  0  0
  4  6  2  0  0  0  0
  6  7  1  0  0  0  0
  6  8  1  0  0  0  0
  8  9  1  0  0  0  0
  8 10  1  0  0  0  0
  8 11  1  0  0  0  0
 11 12  1  0  0  0  0
 11 13  1  0  0  0  0
 11 14  1  0  0  0  0
 14 15  1  0  0  0  0
 14 16  1  0  0  0  0
 14 17  1  0  0  0  0
M  END
> <VConfSearch Rank>
423

> <Conf_Id>
3

> <Delta U+W>
0.531

> <U+W>
-52.878

> <U>
10.067

> <W>
-62.945

> <W(PB)>
-64.982

> <W(SA)>
2.037

> <Valence>
2.779

> <Coulomb>
6.474

> <VdW>
0.815

> <VdW6>
-5.088

> <VdW12>
5.902

> <Bond>
0.078

> <Angle>
2.651

> <Pdih>
0.050

> <Idih>
0.000

> <Tether>
0.000

$$$$
VeraChem MOL file


 17 16  0  0  0  0  0  0  0  0999 V2000     
   21.7446   19.8747   19.7543 C   0  0  0  0  0  0  0  0  0  0  0  0
   22.2517   20.9478   19.4914 O   0  5  0  0  0  0  0  0  0  0  0  0
   21.5740   19.0034   18.9223 O   0  0  0  0  0  0  0  0  0  0  0  0
   21.3254   19.6392   21.1625 C   0  0  0  0  0  0  0  0  0  0  0  0
   21.5066   20.4586   21.8542 H   0  0  0  0  0  0  0  0  0  0  0  0
   20.7475   18.4954   21.5954 C   0  0  0  0  0  0  0  0  0  0  0  0
   20.5590   17.6709   20.9083 H   0  0  0  0  0  0  0  0  0  0  0  0
   20.3194   18.2597   23.0291 C   0  0  0  0  0  0  0  0  0  0  0  0
   20.8055   18.9801   23.7010 H   0  0  0  0  0  0  0  0  0  0  0  0
   20.6629   17.2661   23.3469 H   0  0  0  0  0  0  0  0  0  0  0  0
   18.7870   18.3394   23.2039 C   0  0  0  0  0  0  0  0  0  0  0  0
   18.2999   17.6208   22.5302 H   0  0  0  0  0  0  0  0  0  0  0  0
   18.5267   18.0361   24.2274 H   0  0  0  0  0  0  0  0  0  0  0  0
   18.2323   19.7560   22.9427 C   0  0  0  0  0  0  0  0  0  0  0  0
   18.4172   20.0692   21.9070 H   0  0  0  0  0  0  0  0  0  0  0  0
   17.1485   19.7839   23.1141 H   0  0  0  0  0  0  0  0  0  0  0  0
   18.7005   20.4903   23.6112 H   0  0  0  0  0  0  0  0  0  0  0  0
  1  2  1  0  0  0  0
  1  3  2  0  0  0  0
  1  4  1  0  0  0  0
  4  5  1  0  0  0  0
  4  6  2  0  0  0  0
  6  7  1  0  0  0  0
  6  8  1  0  0  0  0
  8  9  1  0  0  0  0
  8 10  1  0  0  0  0
  8 11  1  0  0  0  0
 11 12  1  0  0  0  0
 11 13  1  0  0  0  0
 11 14  1  0  0  0  0
 14 15  1  0  0  0  0
 14 16  1  0  0  0  0
 14 17  1  0  0  0  0
M  END
> <VConfSearch Rank>
424

> <Conf_Id>
45

> <Delta U+W>
0.562

> <U+W>
-52.846

> <U>
10.243

> <W>
-63.089

> <W(PB)>
-65.116

> <W(SA)>
2.026

> <Valence>
2.822

> <Coulomb>
6.637

> <VdW>
0.785

> <VdW6>
-5.216

> <VdW12>
6.001

> <Bond>
0.080

> <Angle>
2.678

> <Pdih>
0.064

> <Idih>
0.000

> <Tether>
0.000

$$$$
VeraChem MOL file


 17 16  0  0  0  0  0  0  0  0999 V2000     
   22.8513   19.1192   20.1222 C   0  0  0  0  0  0  0  0  0  0  0  0
   23.0342   19.4448   18.9654 O   0  5  0  0  0  0  0  0  0  0  0  0
   23.6765   18.5078   20.7747 O   0  0  0  0  0  0  0  0  0  0  0  0
   21.5545   19.4973   20.7461 C   0  0  0  0  0  0  0  0  0  0  0  0
   20.8621   20.0423   20.1085 H   0  0  0  0  0  0  0  0  0  0  0  0
   21.2165   19.1999   22.0214 C   0  0  0  0  0  0  0  0  0  0  0  0
   21.9017   18.6523   22.6682 H   0  0  0  0  0  0  0  0  0  0  0  0
   19.8945   19.5864   22.6477 C   0  0  0  0  0  0  0  0  0  0  0  0
   19.5951   20.5866   22.3059 H   0  0  0  0  0  0  0  0  0  0  0  0
   20.0087   19.6500   23.7382 H   0  0  0  0  0  0  0  0  0  0  0  0
   18.7900   18.5663   22.3031 C   0  0  0  0  0  0  0  0  0  0  0  0
   18.6715   18.5045   21.2124 H   0  0  0  0  0  0  0  0  0  0  0  0
   19.0908   17.5672   22.6478 H   0  0  0  0  0  0  0  0  0  0  0  0
   17.4413   18.9480   22.9456 C   0  0  0  0  0  0  0  0  0  0  0  0
   17.5239   18.9858   24.0398 H   0  0  0  0  0  0  0  0  0  0  0  0
   17.1025   19.9311   22.5931 H   0  0  0  0  0  0  0  0  0  0  0  0
   16.6687   18.2115   22.6894 H   0  0  0  0  0  0  0  0  0  0  0  0
  1  2  1  0  0  0  0
  1  3  2  0  0  0  0
  1  4  1  0  0  0  0
  4  5  1  0  0  0  0
  4  6  2  0  0  0  0
  6  7  1  0  0  0  0
  6  8  1  0  0  0  0
  8  9  1  0  0  0  0
  8 10  1  0  0  0  0
  8 11  1  0  0  0  0
 11 12  1  0  0  0  0
 11 13  1  0  0  0  0
 11 14  1  0  0  0  0
 14 15  1  0  0  0  0
 14 16  1  0  0  0  0
 14 17  1  0  0  0  0
M  END
> <VConfSearch Rank>
425

> <Conf_Id>
36

> <Delta U+W>
0.000

> <U+W>
-53.409

> <U>
9.048

> <W>
-62.457

> <W(PB)>
-64.540

> <W(SA)>
2.084

> <Valence>
2.652

> <Coulomb>
5.578

> <VdW>
0.818

> <VdW6>
-4.534

> <VdW12>
5.352

> <Bond>
0.063

> <Angle>
2.579

> <Pdih>
0.010

> <Idih>
0.000

> <Tether>
0.000

$$$$
VeraChem MOL file


 17 16  0  0  0  0  0  0  0  0999 V2000     
   23.1802   18.8185   23.0441 C   0  0  0  0  0  0  0  0  0  0  0  0
   23.8893   18.6516   22.0695 O   0  5  0  0  0  0  0  0  0  0  0  0
   23.5810   18.6805   24.1834 O   0  0  0  0  0  0  0  0  0  0  0  0
   21.7567   19.2104   22.8587 C   0  0  0  0  0  0  0  0  0  0  0  0
   21.1786   19.3436   23.7703 H   0  0  0  0  0  0  0  0  0  0  0  0
   21.1776   19.3975   21.6510 C   0  0  0  0  0  0  0  0  0  0  0  0
   21.7470   19.2646   20.7313 H   0  0  0  0  0  0  0  0  0  0  0  0
   19.7286   19.7942   21.4712 C   0  0  0  0  0  0  0  0  0  0  0  0
   19.6036   20.3027   20.5057 H   0  0  0  0  0  0  0  0  0  0  0  0
   19.4385   20.5177   22.2453 H   0  0  0  0  0  0  0  0  0  0  0  0
   18.7979   18.5657   21.5318 C   0  0  0  0  0  0  0  0  0  0  0  0
   19.0887   17.8446   20.7553 H   0  0  0  0  0  0  0  0  0  0  0  0
   18.9188   18.0581   22.4989 H   0  0  0  0  0  0  0  0  0  0  0  0
   17.3198   18.9607   21.3401 C   0  0  0  0  0  0  0  0  0  0  0  0
   17.1650   19.4426   20.3658 H   0  0  0  0  0  0  0  0  0  0  0  0
   16.6736   18.0744   21.3862 H   0  0  0  0  0  0  0  0  0  0  0  0
   16.9948   19.6581   22.1233 H   0  0  0  0  0  0  0  0  0  0  0  0
  1  2  1  0  0  0  0
  1  3  2  0  0  0  0
  1  4  1  0  0  0  0
  4  5  1  0  0  0  0
  4  6  2  0  0  0  0
  6  7  1  0  0  0  0
  6  8  1  0  0  0  0
  8  9  1  0  0  0  0
  8 10  1  0  0  0  0
  8 11  1  0  0  0  0
 11 12  1  0  0  0  0
 11 13  1  0  0  0  0
 11 14  1  0  0  0  0
 14 15  1  0  0  0  0
 14 16  1  0  0  0  0
 14 17  1  0  0  0  0
M  END
> <VConfSearch Rank>
426

> <Conf_Id>
1

> <Delta U+W>
0.030

> <U+W>
-53.378

> <U>
9.048

> <W>
-62.426

> <W(PB)>
-64.506

> <W(SA)>
2.080

> <Valence>
2.652

> <Coulomb>
5.578

> <VdW>
0.818

> <VdW6>
-4.535

> <VdW12>
5.352

> <Bond>
0.063

> <Angle>
2.579

> <Pdih>
0.010

> <Idih>
0.000

> <Tether>
0.000

$$$$
VeraChem MOL file


 17 16  0  0  0  0  0  0  0  0999 V2000     
   22.1817   18.5859   24.1859 C   0  0  0  0  0  0  0  0  0  0  0  0
   23.1872   18.7680   23.5253 O   0  5  0  0  0  0  0  0  0  0  0  0
   22.1861   18.5610   25.4012 O   0  0  0  0  0  0  0  0  0  0  0  0
   20.8781   18.3785   23.4989 C   0  0  0  0  0  0  0  0  0  0  0  0
   20.0196   18.2205   24.1476 H   0  0  0  0  0  0  0  0  0  0  0  0
   20.7254   18.3823   22.1552 C   0  0  0  0  0  0  0  0  0  0  0  0
   21.5782   18.5431   21.4961 H   0  0  0  0  0  0  0  0  0  0  0  0
   19.3946   18.1744   21.4632 C   0  0  0  0  0  0  0  0  0  0  0  0
   18.8307   17.3852   21.9787 H   0  0  0  0  0  0  0  0  0  0  0  0
   19.5593   17.8138   20.4389 H   0  0  0  0  0  0  0  0  0  0  0  0
   18.5438   19.4629   21.4264 C   0  0  0  0  0  0  0  0  0  0  0  0
   17.5542   19.2282   21.0109 H   0  0  0  0  0  0  0  0  0  0  0  0
   18.3763   19.8255   22.4501 H   0  0  0  0  0  0  0  0  0  0  0  0
   19.1948   20.5776   20.5801 C   0  0  0  0  0  0  0  0  0  0  0  0
   19.3603   20.2413   19.5482 H   0  0  0  0  0  0  0  0  0  0  0  0
   18.5491   21.4647   20.5480 H   0  0  0  0  0  0  0  0  0  0  0  0
   20.1623   20.8808   21.0012 H   0  0  0  0  0  0  0  0  0  0  0  0
  1  2  1  0  0  0  0
  1  3  2  0  0  0  0
  1  4  1  0  0  0  0
  4  5  1  0  0  0  0
  4  6  2  0  0  0  0
  6  7  1  0  0  0  0
  6  8  1  0  0  0  0
  8  9  1  0  0  0  0
  8 10  1  0  0  0  0
  8 11  1  0  0  0  0
 11 12  1  0  0  0  0
 11 13  1  0  0  0  0
 11 14  1  0  0  0  0
 14 15  1  0  0  0  0
 14 16  1  0  0  0  0
 14 17  1  0  0  0  0
M  END
> <VConfSearch Rank>
427

> <Conf_Id>
3

> <Delta U+W>
0.531

> <U+W>
-52.878

> <U>
10.067

> <W>
-62.945

> <W(PB)>
-64.982

> <W(SA)>
2.037

> <Valence>
2.779

> <Coulomb>
6.474

> <VdW>
0.815

> <VdW6>
-5.088

> <VdW12>
5.902

> <Bond>
0.078

> <Angle>
2.651

> <Pdih>
0.050

> <Idih>
0.000

> <Tether>
0.000

$$$$
VeraChem MOL file


 17 16  0  0  0  0  0  0  0  0999 V2000     
   22.6905   18.4860   20.9024 C   0  0  0  0  0  0  0  0  0  0  0  0
   23.4468   17.5644   21.1399 O   0  5  0  0  0  0  0  0  0  0  0  0
   23.0592   19.5291   20.3960 O   0  0  0  0  0  0  0  0  0  0  0  0
   21.2556   18.3052   21.2523 C   0  0  0  0  0  0  0  0  0  0  0  0
   20.9940   17.3499   21.7013 H   0  0  0  0  0  0  0  0  0  0  0  0
   20.3055   19.2458   21.0466 C   0  0  0  0  0  0  0  0  0  0  0  0
   20.5596   20.2070   20.6006 H   0  0  0  0  0  0  0  0  0  0  0  0
   18.8460   19.0598   21.4064 C   0  0  0  0  0  0  0  0  0  0  0  0
   18.6171   17.9957   21.5551 H   0  0  0  0  0  0  0  0  0  0  0  0
   18.2242   19.3909   20.5640 H   0  0  0  0  0  0  0  0  0  0  0  0
   18.4469   19.8575   22.6672 C   0  0  0  0  0  0  0  0  0  0  0  0
   18.6779   20.9217   22.5204 H   0  0  0  0  0  0  0  0  0  0  0  0
   17.3591   19.7887   22.8055 H   0  0  0  0  0  0  0  0  0  0  0  0
   19.1493   19.3437   23.9422 C   0  0  0  0  0  0  0  0  0  0  0  0
   20.2387   19.4565   23.8671 H   0  0  0  0  0  0  0  0  0  0  0  0
   18.8128   19.9071   24.8221 H   0  0  0  0  0  0  0  0  0  0  0  0
   18.9259   18.2826   24.1129 H   0  0  0  0  0  0  0  0  0  0  0  0
  1  2  1  0  0  0  0
  1  3  2  0  0  0  0
  1  4  1  0  0  0  0
  4  5  1  0  0  0  0
  4  6  2  0  0  0  0
  6  7  1  0  0  0  0
  6  8  1  0  0  0  0
  8  9  1  0  0  0  0
  8 10  1  0  0  0  0
  8 11  1  0  0  0  0
 11 12  1  0  0  0  0
 11 13  1  0  0  0  0
 11 14  1  0  0  0  0
 14 15  1  0  0  0  0
 14 16  1  0  0  0  0
 14 17  1  0  0  0  0
M  END
> <VConfSearch Rank>
428

> <Conf_Id>
45

> <Delta U+W>
0.562

> <U+W>
-52.846

> <U>
10.243

> <W>
-63.089

> <W(PB)>
-65.116

> <W(SA)>
2.026

> <Valence>
2.822

> <Coulomb>
6.637

> <VdW>
0.785

> <VdW6>
-5.216

> <VdW12>
6.001

> <Bond>
0.080

> <Angle>
2.678

> <Pdih>
0.064

> <Idih>
0.000

> <Tether>
0.000

$$$$
VeraChem MOL file


 17 16  0  0  0  0  0  0  0  0999 V2000     
   21.0867   16.9720   24.2753 C   0  0  0  0  0  0  0  0  0  0  0  0
   22.2186   16.7781   24.6739 O   0  5  0  0  0  0  0  0  0  0  0  0
   20.1596   16.2266   24.5306 O   0  0  0  0  0  0  0  0  0  0  0  0
   20.8491   18.1815   23.4417 C   0  0  0  0  0  0  0  0  0  0  0  0
   21.7196   18.8050   23.2512 H   0  0  0  0  0  0  0  0  0  0  0  0
   19.6434   18.5200   22.9310 C   0  0  0  0  0  0  0  0  0  0  0  0
   18.7651   17.9011   23.1138 H   0  0  0  0  0  0  0  0  0  0  0  0
   19.4108   19.7507   22.0823 C   0  0  0  0  0  0  0  0  0  0  0  0
   20.0084   20.5893   22.4649 H   0  0  0  0  0  0  0  0  0  0  0  0
   18.3586   20.0565   22.1585 H   0  0  0  0  0  0  0  0  0  0  0  0
   19.7667   19.4896   20.6044 C   0  0  0  0  0  0  0  0  0  0  0  0
   20.8203   19.1876   20.5260 H   0  0  0  0  0  0  0  0  0  0  0  0
   19.1662   18.6518   20.2234 H   0  0  0  0  0  0  0  0  0  0  0  0
   19.5233   20.7366   19.7308 C   0  0  0  0  0  0  0  0  0  0  0  0
   18.4692   21.0415   19.7660 H   0  0  0  0  0  0  0  0  0  0  0  0
   20.1362   21.5812   20.0722 H   0  0  0  0  0  0  0  0  0  0  0  0
   19.7820   20.5318   18.6837 H   0  0  0  0  0  0  0  0  0  0  0  0
  1  2  1  0  0  0  0
  1  3  2  0  0  0  0
  1  4  1  0  0  0  0
  4  5  1  0  0  0  0
  4  6  2  0  0  0  0
  6  7  1  0  0  0  0
  6  8  1  0  0  0  0
  8  9  1  0  0  0  0
  8 10  1  0  0  0  0
  8 11  1  0  0  0  0
 11 12  1  0  0  0  0
 11 13  1  0  0  0  0
 11 14  1  0  0  0  0
 14 15  1  0  0  0  0
 14 16  1  0  0  0  0
 14 17  1  0  0  0  0
M  END
> <VConfSearch Rank>
429

> <Conf_Id>
36

> <Delta U+W>
0.000

> <U+W>
-53.409

> <U>
9.048

> <W>
-62.457

> <W(PB)>
-64.540

> <W(SA)>
2.084

> <Valence>
2.652

> <Coulomb>
5.578

> <VdW>
0.818

> <VdW6>
-4.534

> <VdW12>
5.352

> <Bond>
0.063

> <Angle>
2.579

> <Pdih>
0.010

> <Idih>
0.000

> <Tether>
0.000

$$$$
VeraChem MOL file


 17 16  0  0  0  0  0  0  0  0999 V2000     
   21.4222   22.1541   21.7527 C   0  0  0  0  0  0  0  0  0  0  0  0
   20.5158   22.9518   21.6024 O   0  5  0  0  0  0  0  0  0  0  0  0
   22.5938   22.4568   21.6365 O   0  0  0  0  0  0  0  0  0  0  0  0
   21.1080   20.7407   22.0956 C   0  0  0  0  0  0  0  0  0  0  0  0
   21.9636   20.0801   22.2161 H   0  0  0  0  0  0  0  0  0  0  0  0
   19.8520   20.2649   22.2545 C   0  0  0  0  0  0  0  0  0  0  0  0
   18.9875   20.9175   22.1339 H   0  0  0  0  0  0  0  0  0  0  0  0
   19.5410   18.8254   22.6014 C   0  0  0  0  0  0  0  0  0  0  0  0
   18.5631   18.7699   23.0984 H   0  0  0  0  0  0  0  0  0  0  0  0
   20.2791   18.4446   23.3205 H   0  0  0  0  0  0  0  0  0  0  0  0
   19.5319   17.9335   21.3431 C   0  0  0  0  0  0  0  0  0  0  0  0
   18.7914   18.3151   20.6264 H   0  0  0  0  0  0  0  0  0  0  0  0
   20.5110   17.9847   20.8469 H   0  0  0  0  0  0  0  0  0  0  0  0
   19.2065   16.4661   21.6872 C   0  0  0  0  0  0  0  0  0  0  0  0
   18.2175   16.3825   22.1566 H   0  0  0  0  0  0  0  0  0  0  0  0
   19.2045   15.8475   20.7803 H   0  0  0  0  0  0  0  0  0  0  0  0
   19.9507   16.0505   22.3792 H   0  0  0  0  0  0  0  0  0  0  0  0
  1  2  1  0  0  0  0
  1  3  2  0  0  0  0
  1  4  1  0  0  0  0
  4  5  1  0  0  0  0
  4  6  2  0  0  0  0
  6  7  1  0  0  0  0
  6  8  1  0  0  0  0
  8  9  1  0  0  0  0
  8 10  1  0  0  0  0
  8 11  1  0  0  0  0
 11 12  1  0  0  0  0
 11 13  1  0  0  0  0
 11 14  1  0  0  0  0
 14 15  1  0  0  0  0
 14 16  1  0  0  0  0
 14 17  1  0  0  0  0
M  END
> <VConfSearch Rank>
430

> <Conf_Id>
1

> <Delta U+W>
0.030

> <U+W>
-53.378

> <U>
9.048

> <W>
-62.426

> <W(PB)>
-64.506

> <W(SA)>
2.080

> <Valence>
2.652

> <Coulomb>
5.578

> <VdW>
0.818

> <VdW6>
-4.535

> <VdW12>
5.352

> <Bond>
0.063

> <Angle>
2.579

> <Pdih>
0.010

> <Idih>
0.000

> <Tether>
0.000

$$$$
VeraChem MOL file


 17 16  0  0  0  0  0  0  0  0999 V2000     
   21.1622   21.3906   20.3518 C   0  0  0  0  0  0  0  0  0  0  0  0
   21.8925   20.7685   19.6035 O   0  5  0  0  0  0  0  0  0  0  0  0
   20.8249   22.5393   20.1405 O   0  0  0  0  0  0  0  0  0  0  0  0
   20.6493   20.7400   21.5878 C   0  0  0  0  0  0  0  0  0  0  0  0
   20.0026   21.3515   22.2128 H   0  0  0  0  0  0  0  0  0  0  0  0
   20.9413   19.4694   21.9474 C   0  0  0  0  0  0  0  0  0  0  0  0
   21.5854   18.8468   21.3269 H   0  0  0  0  0  0  0  0  0  0  0  0
   20.4123   18.8126   23.2052 C   0  0  0  0  0  0  0  0  0  0  0  0
   20.4360   19.5325   24.0345 H   0  0  0  0  0  0  0  0  0  0  0  0
   21.0718   17.9850   23.4993 H   0  0  0  0  0  0  0  0  0  0  0  0
   18.9703   18.2872   23.0318 C   0  0  0  0  0  0  0  0  0  0  0  0
   18.6034   17.9191   23.9998 H   0  0  0  0  0  0  0  0  0  0  0  0
   18.3078   19.1134   22.7387 H   0  0  0  0  0  0  0  0  0  0  0  0
   18.8759   17.1509   21.9913 C   0  0  0  0  0  0  0  0  0  0  0  0
   19.5212   16.3080   22.2708 H   0  0  0  0  0  0  0  0  0  0  0  0
   17.8456   16.7793   21.9182 H   0  0  0  0  0  0  0  0  0  0  0  0
   19.1792   17.4996   20.9955 H   0  0  0  0  0  0  0  0  0  0  0  0
  1  2  1  0  0  0  0
  1  3  2  0  0  0  0
  1  4  1  0  0  0  0
  4  5  1  0  0  0  0
  4  6  2  0  0  0  0
  6  7  1  0  0  0  0
  6  8  1  0  0  0  0
  8  9  1  0  0  0  0
  8 10  1  0  0  0  0
  8 11  1  0  0  0  0
 11 12  1  0  0  0  0
 11 13  1  0  0  0  0
 11 14  1  0  0  0  0
 14 15  1  0  0  0  0
 14 16  1  0  0  0  0
 14 17  1  0  0  0  0
M  END
> <VConfSearch Rank>
431

> <Conf_Id>
3

> <Delta U+W>
0.531

> <U+W>
-52.878

> <U>
10.067

> <W>
-62.945

> <W(PB)>
-64.982

> <W(SA)>
2.037

> <Valence>
2.779

> <Coulomb>
6.474

> <VdW>
0.815

> <VdW6>
-5.088

> <VdW12>
5.902

> <Bond>
0.078

> <Angle>
2.651

> <Pdih>
0.050

> <Idih>
0.000

> <Tether>
0.000

$$$$
VeraChem MOL file


 17 16  0  0  0  0  0  0  0  0999 V2000     
   20.9318   21.9530   21.8238 C   0  0  0  0  0  0  0  0  0  0  0  0
   22.0005   22.4426   22.1339 O   0  5  0  0  0  0  0  0  0  0  0  0
   19.9202   22.6134   21.6788 O   0  0  0  0  0  0  0  0  0  0  0  0
   20.8851   20.4806   21.6148 C   0  0  0  0  0  0  0  0  0  0  0  0
   21.8239   19.9512   21.7605 H   0  0  0  0  0  0  0  0  0  0  0  0
   19.7660   19.8035   21.2703 C   0  0  0  0  0  0  0  0  0  0  0  0
   18.8204   20.3255   21.1260 H   0  0  0  0  0  0  0  0  0  0  0  0
   19.7209   18.3040   21.0610 C   0  0  0  0  0  0  0  0  0  0  0  0
   20.7340   17.9027   20.9216 H   0  0  0  0  0  0  0  0  0  0  0  0
   19.1766   18.0880   20.1319 H   0  0  0  0  0  0  0  0  0  0  0  0
   19.0281   17.5695   22.2296 C   0  0  0  0  0  0  0  0  0  0  0  0
   18.0155   17.9722   22.3714 H   0  0  0  0  0  0  0  0  0  0  0  0
   18.9101   16.5092   21.9670 H   0  0  0  0  0  0  0  0  0  0  0  0
   19.8198   17.6754   23.5505 C   0  0  0  0  0  0  0  0  0  0  0  0
   19.9031   18.7193   23.8799 H   0  0  0  0  0  0  0  0  0  0  0  0
   19.3190   17.1104   24.3472 H   0  0  0  0  0  0  0  0  0  0  0  0
   20.8338   17.2712   23.4338 H   0  0  0  0  0  0  0  0  0  0  0  0
  1  2  1  0  0  0  0
  1  3  2  0  0  0  0
  1  4  1  0  0  0  0
  4  5  1  0  0  0  0
  4  6  2  0  0  0  0
  6  7  1  0  0  0  0
  6  8  1  0  0  0  0
  8  9  1  0  0  0  0
  8 10  1  0  0  0  0
  8 11  1  0  0  0  0
 11 12  1  0  0  0  0
 11 13  1  0  0  0  0
 11 14  1  0  0  0  0
 14 15  1  0  0  0  0
 14 16  1  0  0  0  0
 14 17  1  0  0  0  0
M  END
> <VConfSearch Rank>
432

> <Conf_Id>
45

> <Delta U+W>
0.562

> <U+W>
-52.846

> <U>
10.243

> <W>
-63.089

> <W(PB)>
-65.116

> <W(SA)>
2.026

> <Valence>
2.822

> <Coulomb>
6.637

> <VdW>
0.785

> <VdW6>
-5.216

> <VdW12>
6.001

> <Bond>
0.080

> <Angle>
2.678

> <Pdih>
0.064

> <Idih>
0.000

> <Tether>
0.000

$$$$
VeraChem MOL file


 17 16  0  0  0  0  0  0  0  0999 V2000     
   16.9077   17.9473   21.2149 C   0  0  0  0  0  0  0  0  0  0  0  0
   16.1633   18.2388   20.2992 O   0  5  0  0  0  0  0  0  0  0  0  0
   16.5418   17.3155   22.1883 O   0  0  0  0  0  0  0  0  0  0  0  0
   18.3242   18.3924   21.1178 C   0  0  0  0  0  0  0  0  0  0  0  0
   18.5854   18.9524   20.2227 H   0  0  0  0  0  0  0  0  0  0  0  0
   19.2600   18.1402   22.0611 C   0  0  0  0  0  0  0  0  0  0  0  0
   19.0086   17.5820   22.9628 H   0  0  0  0  0  0  0  0  0  0  0  0
   20.6981   18.5984   21.9556 C   0  0  0  0  0  0  0  0  0  0  0  0
   21.0454   18.5093   20.9172 H   0  0  0  0  0  0  0  0  0  0  0  0
   21.3390   17.9397   22.5570 H   0  0  0  0  0  0  0  0  0  0  0  0
   20.8603   20.0552   22.4356 C   0  0  0  0  0  0  0  0  0  0  0  0
   20.2228   20.7161   21.8321 H   0  0  0  0  0  0  0  0  0  0  0  0
   20.5142   20.1412   23.4750 H   0  0  0  0  0  0  0  0  0  0  0  0
   22.3252   20.5268   22.3401 C   0  0  0  0  0  0  0  0  0  0  0  0
   22.9807   19.9015   22.9605 H   0  0  0  0  0  0  0  0  0  0  0  0
   22.6863   20.4798   21.3043 H   0  0  0  0  0  0  0  0  0  0  0  0
   22.4208   21.5644   22.6855 H   0  0  0  0  0  0  0  0  0  0  0  0
  1  2  1  0  0  0  0
  1  3  2  0  0  0  0
  1  4  1  0  0  0  0
  4  5  1  0  0  0  0
  4  6  2  0  0  0  0
  6  7  1  0  0  0  0
  6  8  1  0  0  0  0
  8  9  1  0  0  0  0
  8 10  1  0  0  0  0
  8 11  1  0  0  0  0
 11 12  1  0  0  0  0
 11 13  1  0  0  0  0
 11 14  1  0  0  0  0
 14 15  1  0  0  0  0
 14 16  1  0  0  0  0
 14 17  1  0  0  0  0
M  END
> <VConfSearch Rank>
433

> <Conf_Id>
36

> <Delta U+W>
0.000

> <U+W>
-53.409

> <U>
9.048

> <W>
-62.457

> <W(PB)>
-64.540

> <W(SA)>
2.084

> <Valence>
2.652

> <Coulomb>
5.578

> <VdW>
0.818

> <VdW6>
-4.534

> <VdW12>
5.352

> <Bond>
0.063

> <Angle>
2.579

> <Pdih>
0.010

> <Idih>
0.000

> <Tether>
0.000

$$$$
VeraChem MOL file


 17 16  0  0  0  0  0  0  0  0999 V2000     
   18.6159   21.7881   23.3835 C   0  0  0  0  0  0  0  0  0  0  0  0
   19.2901   22.7509   23.0687 O   0  5  0  0  0  0  0  0  0  0  0  0
   17.7548   21.8370   24.2401 O   0  0  0  0  0  0  0  0  0  0  0  0
   18.8357   20.4831   22.7032 C   0  0  0  0  0  0  0  0  0  0  0  0
   18.2000   19.6639   23.0314 H   0  0  0  0  0  0  0  0  0  0  0  0
   19.7583   20.2839   21.7346 C   0  0  0  0  0  0  0  0  0  0  0  0
   20.4018   21.0972   21.3997 H   0  0  0  0  0  0  0  0  0  0  0  0
   19.9766   18.9529   21.0491 C   0  0  0  0  0  0  0  0  0  0  0  0
   20.4147   19.1184   20.0556 H   0  0  0  0  0  0  0  0  0  0  0  0
   19.0127   18.4519   20.8860 H   0  0  0  0  0  0  0  0  0  0  0  0
   20.9043   18.0401   21.8767 C   0  0  0  0  0  0  0  0  0  0  0  0
   21.8685   18.5425   22.0366 H   0  0  0  0  0  0  0  0  0  0  0  0
   20.4654   17.8702   22.8697 H   0  0  0  0  0  0  0  0  0  0  0  0
   21.1394   16.6847   21.1802 C   0  0  0  0  0  0  0  0  0  0  0  0
   21.6074   16.8241   20.1969 H   0  0  0  0  0  0  0  0  0  0  0  0
   21.8011   16.0495   21.7834 H   0  0  0  0  0  0  0  0  0  0  0  0
   20.1927   16.1475   21.0365 H   0  0  0  0  0  0  0  0  0  0  0  0
  1  2  1  0  0  0  0
  1  3  2  0  0  0  0
  1  4  1  0  0  0  0
  4  5  1  0  0  0  0
  4  6  2  0  0  0  0
  6  7  1  0  0  0  0
  6  8  1  0  0  0  0
  8  9  1  0  0  0  0
  8 10  1  0  0  0  0
  8 11  1  0  0  0  0
 11 12  1  0  0  0  0
 11 13  1  0  0  0  0
 11 14  1  0  0  0  0
 14 15  1  0  0  0  0
 14 16  1  0  0  0  0
 14 17  1  0  0  0  0
M  END
> <VConfSearch Rank>
434

> <Conf_Id>
1

> <Delta U+W>
0.030

> <U+W>
-53.378

> <U>
9.048

> <W>
-62.426

> <W(PB)>
-64.506

> <W(SA)>
2.080

> <Valence>
2.652

> <Coulomb>
5.578

> <VdW>
0.818

> <VdW6>
-4.535

> <VdW12>
5.352

> <Bond>
0.063

> <Angle>
2.579

> <Pdih>
0.010

> <Idih>
0.000

> <Tether>
0.000

$$$$
VeraChem MOL file


 17 16  0  0  0  0  0  0  0  0999 V2000     
   19.1373   21.5826   20.4681 C   0  0  0  0  0  0  0  0  0  0  0  0
   20.1588   21.8226   19.8522 O   0  5  0  0  0  0  0  0  0  0  0  0
   18.0614   22.0675   20.1762 O   0  0  0  0  0  0  0  0  0  0  0  0
   19.1818   20.6611   21.6356 C   0  0  0  0  0  0  0  0  0  0  0  0
   18.2346   20.4903   22.1419 H   0  0  0  0  0  0  0  0  0  0  0  0
   20.3071   20.0504   22.0712 C   0  0  0  0  0  0  0  0  0  0  0  0
   21.2608   20.2118   21.5692 H   0  0  0  0  0  0  0  0  0  0  0  0
   20.3439   19.1106   23.2580 C   0  0  0  0  0  0  0  0  0  0  0  0
   19.7058   19.5052   24.0602 H   0  0  0  0  0  0  0  0  0  0  0  0
   21.3616   19.0686   23.6689 H   0  0  0  0  0  0  0  0  0  0  0  0
   19.8751   17.6848   22.8933 C   0  0  0  0  0  0  0  0  0  0  0  0
   19.8219   17.0791   23.8084 H   0  0  0  0  0  0  0  0  0  0  0  0
   18.8565   17.7235   22.4829 H   0  0  0  0  0  0  0  0  0  0  0  0
   20.8161   16.9928   21.8842 C   0  0  0  0  0  0  0  0  0  0  0  0
   21.8386   16.9316   22.2790 H   0  0  0  0  0  0  0  0  0  0  0  0
   20.4724   15.9718   21.6736 H   0  0  0  0  0  0  0  0  0  0  0  0
   20.8480   17.5398   20.9329 H   0  0  0  0  0  0  0  0  0  0  0  0
  1  2  1  0  0  0  0
  1  3  2  0  0  0  0
  1  4  1  0  0  0  0
  4  5  1  0  0  0  0
  4  6  2  0  0  0  0
  6  7  1  0  0  0  0
  6  8  1  0  0  0  0
  8  9  1  0  0  0  0
  8 10  1  0  0  0  0
  8 11  1  0  0  0  0
 11 12  1  0  0  0  0
 11 13  1  0  0  0  0
 11 14  1  0  0  0  0
 14 15  1  0  0  0  0
 14 16  1  0  0  0  0
 14 17  1  0  0  0  0
M  END
> <VConfSearch Rank>
435

> <Conf_Id>
3

> <Delta U+W>
0.531

> <U+W>
-52.878

> <U>
10.067

> <W>
-62.945

> <W(PB)>
-64.982

> <W(SA)>
2.037

> <Valence>
2.779

> <Coulomb>
6.474

> <VdW>
0.815

> <VdW6>
-5.088

> <VdW12>
5.902

> <Bond>
0.078

> <Angle>
2.651

> <Pdih>
0.050

> <Idih>
0.000

> <Tether>
0.000

$$$$
VeraChem MOL file


 17 16  0  0  0  0  0  0  0  0999 V2000     
   22.4098   17.9745   23.4672 C   0  0  0  0  0  0  0  0  0  0  0  0
   23.5863   18.0892   23.1836 O   0  5  0  0  0  0  0  0  0  0  0  0
   21.9849   17.0789   24.1729 O   0  0  0  0  0  0  0  0  0  0  0  0
   21.4685   18.9876   22.9181 C   0  0  0  0  0  0  0  0  0  0  0  0
   21.9140   19.7601   22.2956 H   0  0  0  0  0  0  0  0  0  0  0  0
   20.1358   18.9815   23.1494 C   0  0  0  0  0  0  0  0  0  0  0  0
   19.6807   18.2090   23.7689 H   0  0  0  0  0  0  0  0  0  0  0  0
   19.1796   20.0127   22.5867 C   0  0  0  0  0  0  0  0  0  0  0  0
   19.7272   20.9019   22.2455 H   0  0  0  0  0  0  0  0  0  0  0  0
   18.5101   20.3550   23.3870 H   0  0  0  0  0  0  0  0  0  0  0  0
   18.3280   19.4512   21.4271 C   0  0  0  0  0  0  0  0  0  0  0  0
   17.7820   18.5602   21.7668 H   0  0  0  0  0  0  0  0  0  0  0  0
   17.5702   20.1954   21.1459 H   0  0  0  0  0  0  0  0  0  0  0  0
   19.1740   19.1008   20.1844 C   0  0  0  0  0  0  0  0  0  0  0  0
   19.9023   18.3112   20.4108 H   0  0  0  0  0  0  0  0  0  0  0  0
   18.5323   18.7426   19.3690 H   0  0  0  0  0  0  0  0  0  0  0  0
   19.7232   19.9798   19.8228 H   0  0  0  0  0  0  0  0  0  0  0  0
  1  2  1  0  0  0  0
  1  3  2  0  0  0  0
  1  4  1  0  0  0  0
  4  5  1  0  0  0  0
  4  6  2  0  0  0  0
  6  7  1  0  0  0  0
  6  8  1  0  0  0  0
  8  9  1  0  0  0  0
  8 10  1  0  0  0  0
  8 11  1  0  0  0  0
 11 12  1  0  0  0  0
 11 13  1  0  0  0  0
 11 14  1  0  0  0  0
 14 15  1  0  0  0  0
 14 16  1  0  0  0  0
 14 17  1  0  0  0  0
M  END
> <VConfSearch Rank>
436

> <Conf_Id>
45

> <Delta U+W>
0.562

> <U+W>
-52.846

> <U>
10.243

> <W>
-63.089

> <W(PB)>
-65.116

> <W(SA)>
2.026

> <Valence>
2.822

> <Coulomb>
6.637

> <VdW>
0.785

> <VdW6>
-5.216

> <VdW12>
6.001

> <Bond>
0.080

> <Angle>
2.678

> <Pdih>
0.064

> <Idih>
0.000

> <Tether>
0.000

$$$$
VeraChem MOL file


 17 16  0  0  0  0  0  0  0  0999 V2000     
   17.4181   19.2530   19.7390 C   0  0  0  0  0  0  0  0  0  0  0  0
   17.2810   19.9478   18.7510 O   0  5  0  0  0  0  0  0  0  0  0  0
   16.5026   18.6253   20.2374 O   0  0  0  0  0  0  0  0  0  0  0  0
   18.7745   19.1816   20.3465 C   0  0  0  0  0  0  0  0  0  0  0  0
   19.5473   19.7660   19.8523 H   0  0  0  0  0  0  0  0  0  0  0  0
   19.0708   18.4507   21.4452 C   0  0  0  0  0  0  0  0  0  0  0  0
   18.3037   17.8634   21.9496 H   0  0  0  0  0  0  0  0  0  0  0  0
   20.4526   18.3853   22.0581 C   0  0  0  0  0  0  0  0  0  0  0  0
   21.2142   18.3691   21.2665 H   0  0  0  0  0  0  0  0  0  0  0  0
   20.5630   17.4463   22.6171 H   0  0  0  0  0  0  0  0  0  0  0  0
   20.7065   19.5798   23.0002 C   0  0  0  0  0  0  0  0  0  0  0  0
   20.6006   20.5201   22.4414 H   0  0  0  0  0  0  0  0  0  0  0  0
   19.9448   19.5927   23.7922 H   0  0  0  0  0  0  0  0  0  0  0  0
   22.1096   19.5156   23.6364 C   0  0  0  0  0  0  0  0  0  0  0  0
   22.2312   18.5987   24.2281 H   0  0  0  0  0  0  0  0  0  0  0  0
   22.8915   19.5327   22.8659 H   0  0  0  0  0  0  0  0  0  0  0  0
   22.2718   20.3728   24.3027 H   0  0  0  0  0  0  0  0  0  0  0  0
  1  2  1  0  0  0  0
  1  3  2  0  0  0  0
  1  4  1  0  0  0  0
  4  5  1  0  0  0  0
  4  6  2  0  0  0  0
  6  7  1  0  0  0  0
  6  8  1  0  0  0  0
  8  9  1  0  0  0  0
  8 10  1  0  0  0  0
  8 11  1  0  0  0  0
 11 12  1  0  0  0  0
 11 13  1  0  0  0  0
 11 14  1  0  0  0  0
 14 15  1  0  0  0  0
 14 16  1  0  0  0  0
 14 17  1  0  0  0  0
M  END
> <VConfSearch Rank>
437

> <Conf_Id>
36

> <Delta U+W>
0.000

> <U+W>
-53.409

> <U>
9.048

> <W>
-62.457

> <W(PB)>
-64.540

> <W(SA)>
2.084

> <Valence>
2.652

> <Coulomb>
5.578

> <VdW>
0.818

> <VdW6>
-4.534

> <VdW12>
5.352

> <Bond>
0.063

> <Angle>
2.579

> <Pdih>
0.010

> <Idih>
0.000

> <Tether>
0.000

$$$$
VeraChem MOL file


 17 16  0  0  0  0  0  0  0  0999 V2000     
   22.2114   21.6061   21.4289 C   0  0  0  0  0  0  0  0  0  0  0  0
   21.5951   22.5184   20.9109 O   0  5  0  0  0  0  0  0  0  0  0  0
   23.4236   21.5963   21.5197 O   0  0  0  0  0  0  0  0  0  0  0  0
   21.4709   20.4411   21.9842 C   0  0  0  0  0  0  0  0  0  0  0  0
   22.0814   19.6609   22.4333 H   0  0  0  0  0  0  0  0  0  0  0  0
   20.1244   20.3187   21.9516 C   0  0  0  0  0  0  0  0  0  0  0  0
   19.5033   21.0933   21.5022 H   0  0  0  0  0  0  0  0  0  0  0  0
   19.3791   19.1295   22.5171 C   0  0  0  0  0  0  0  0  0  0  0  0
   18.3552   19.4280   22.7795 H   0  0  0  0  0  0  0  0  0  0  0  0
   19.8560   18.7959   23.4488 H   0  0  0  0  0  0  0  0  0  0  0  0
   19.3343   17.9632   21.5087 C   0  0  0  0  0  0  0  0  0  0  0  0
   18.8551   18.2987   20.5785 H   0  0  0  0  0  0  0  0  0  0  0  0
   20.3581   17.6606   21.2482 H   0  0  0  0  0  0  0  0  0  0  0  0
   18.5683   16.7503   22.0741 C   0  0  0  0  0  0  0  0  0  0  0  0
   17.5307   17.0177   22.3137 H   0  0  0  0  0  0  0  0  0  0  0  0
   18.5469   15.9314   21.3433 H   0  0  0  0  0  0  0  0  0  0  0  0
   19.0459   16.3756   22.9889 H   0  0  0  0  0  0  0  0  0  0  0  0
  1  2  1  0  0  0  0
  1  3  2  0  0  0  0
  1  4  1  0  0  0  0
  4  5  1  0  0  0  0
  4  6  2  0  0  0  0
  6  7  1  0  0  0  0
  6  8  1  0  0  0  0
  8  9  1  0  0  0  0
  8 10  1  0  0  0  0
  8 11  1  0  0  0  0
 11 12  1  0  0  0  0
 11 13  1  0  0  0  0
 11 14  1  0  0  0  0
 14 15  1  0  0  0  0
 14 16  1  0  0  0  0
 14 17  1  0  0  0  0
M  END
> <VConfSearch Rank>
438

> <Conf_Id>
1

> <Delta U+W>
0.030

> <U+W>
-53.378

> <U>
9.048

> <W>
-62.426

> <W(PB)>
-64.506

> <W(SA)>
2.080

> <Valence>
2.652

> <Coulomb>
5.578

> <VdW>
0.818

> <VdW6>
-4.535

> <VdW12>
5.352

> <Bond>
0.063

> <Angle>
2.579

> <Pdih>
0.010

> <Idih>
0.000

> <Tether>
0.000

$$$$
VeraChem MOL file


 17 16  0  0  0  0  0  0  0  0999 V2000     
   20.9724   16.3547   23.1070 C   0  0  0  0  0  0  0  0  0  0  0  0
   22.1182   16.3502   22.6977 O   0  5  0  0  0  0  0  0  0  0  0  0
   20.5745   15.5889   23.9631 O   0  0  0  0  0  0  0  0  0  0  0  0
   19.9958   17.3285   22.5483 C   0  0  0  0  0  0  0  0  0  0  0  0
   18.9891   17.2787   22.9568 H   0  0  0  0  0  0  0  0  0  0  0  0
   20.2997   18.2375   21.5942 C   0  0  0  0  0  0  0  0  0  0  0  0
   21.3060   18.2984   21.1804 H   0  0  0  0  0  0  0  0  0  0  0  0
   19.3013   19.2281   21.0331 C   0  0  0  0  0  0  0  0  0  0  0  0
   18.3312   18.7329   20.8911 H   0  0  0  0  0  0  0  0  0  0  0  0
   19.6245   19.5598   20.0372 H   0  0  0  0  0  0  0  0  0  0  0  0
   19.1131   20.4564   21.9505 C   0  0  0  0  0  0  0  0  0  0  0  0
   18.3060   21.0844   21.5489 H   0  0  0  0  0  0  0  0  0  0  0  0
   18.7885   20.1278   22.9475 H   0  0  0  0  0  0  0  0  0  0  0  0
   20.3973   21.3039   22.0749 C   0  0  0  0  0  0  0  0  0  0  0  0
   20.7335   21.6542   21.0904 H   0  0  0  0  0  0  0  0  0  0  0  0
   20.2188   22.1846   22.7053 H   0  0  0  0  0  0  0  0  0  0  0  0
   21.2117   20.7246   22.5293 H   0  0  0  0  0  0  0  0  0  0  0  0
  1  2  1  0  0  0  0
  1  3  2  0  0  0  0
  1  4  1  0  0  0  0
  4  5  1  0  0  0  0
  4  6  2  0  0  0  0
  6  7  1  0  0  0  0
  6  8  1  0  0  0  0
  8  9  1  0  0  0  0
  8 10  1  0  0  0  0
  8 11  1  0  0  0  0
 11 12  1  0  0  0  0
 11 13  1  0  0  0  0
 11 14  1  0  0  0  0
 14 15  1  0  0  0  0
 14 16  1  0  0  0  0
 14 17  1  0  0  0  0
M  END
> <VConfSearch Rank>
439

> <Conf_Id>
3

> <Delta U+W>
0.531

> <U+W>
-52.878

> <U>
10.067

> <W>
-62.945

> <W(PB)>
-64.982

> <W(SA)>
2.037

> <Valence>
2.779

> <Coulomb>
6.474

> <VdW>
0.815

> <VdW6>
-5.088

> <VdW12>
5.902

> <Bond>
0.078

> <Angle>
2.651

> <Pdih>
0.050

> <Idih>
0.000

> <Tether>
0.000

$$$$
VeraChem MOL file


 17 16  0  0  0  0  0  0  0  0999 V2000     
   17.1609   18.6226   23.0566 C   0  0  0  0  0  0  0  0  0  0  0  0
   16.3988   19.3819   23.6226 O   0  5  0  0  0  0  0  0  0  0  0  0
   17.0427   17.4125   23.1027 O   0  0  0  0  0  0  0  0  0  0  0  0
   18.2771   19.2234   22.2774 C   0  0  0  0  0  0  0  0  0  0  0  0
   18.3245   20.3098   22.2780 H   0  0  0  0  0  0  0  0  0  0  0  0
   19.1990   18.5003   21.6014 C   0  0  0  0  0  0  0  0  0  0  0  0
   19.1611   17.4112   21.5986 H   0  0  0  0  0  0  0  0  0  0  0  0
   20.3358   19.1147   20.8113 C   0  0  0  0  0  0  0  0  0  0  0  0
   20.1361   20.1757   20.6083 H   0  0  0  0  0  0  0  0  0  0  0  0
   20.3981   18.6229   19.8314 H   0  0  0  0  0  0  0  0  0  0  0  0
   21.6947   18.9710   21.5310 C   0  0  0  0  0  0  0  0  0  0  0  0
   21.8940   17.9102   21.7369 H   0  0  0  0  0  0  0  0  0  0  0  0
   22.4938   19.3160   20.8605 H   0  0  0  0  0  0  0  0  0  0  0  0
   21.7586   19.7771   22.8459 C   0  0  0  0  0  0  0  0  0  0  0  0
   21.0146   19.4167   23.5681 H   0  0  0  0  0  0  0  0  0  0  0  0
   22.7495   19.6830   23.3087 H   0  0  0  0  0  0  0  0  0  0  0  0
   21.5696   20.8428   22.6625 H   0  0  0  0  0  0  0  0  0  0  0  0
  1  2  1  0  0  0  0
  1  3  2  0  0  0  0
  1  4  1  0  0  0  0
  4  5  1  0  0  0  0
  4  6  2  0  0  0  0
  6  7  1  0  0  0  0
  6  8  1  0  0  0  0
  8  9  1  0  0  0  0
  8 10  1  0  0  0  0
  8 11  1  0  0  0  0
 11 12  1  0  0  0  0
 11 13  1  0  0  0  0
 11 14  1  0  0  0  0
 14 15  1  0  0  0  0
 14 16  1  0  0  0  0
 14 17  1  0  0  0  0
M  END
> <VConfSearch Rank>
440

> <Conf_Id>
45

> <Delta U+W>
0.562

> <U+W>
-52.846

> <U>
10.243

> <W>
-63.089

> <W(PB)>
-65.116

> <W(SA)>
2.026

> <Valence>
2.822

> <Coulomb>
6.637

> <VdW>
0.785

> <VdW6>
-5.216

> <VdW12>
6.001

> <Bond>
0.080

> <Angle>
2.678

> <Pdih>
0.064

> <Idih>
0.000

> <Tether>
0.000

$$$$
VeraChem MOL file


 17 16  0  0  0  0  0  0  0  0999 V2000     
   23.1288   19.2927   20.6827 C   0  0  0  0  0  0  0  0  0  0  0  0
   24.1892   19.1159   21.2503 O   0  5  0  0  0  0  0  0  0  0  0  0
   23.0465   19.7987   19.5792 O   0  0  0  0  0  0  0  0  0  0  0  0
   21.8913   18.8622   21.3879 C   0  0  0  0  0  0  0  0  0  0  0  0
   22.0350   18.4176   22.3701 H   0  0  0  0  0  0  0  0  0  0  0  0
   20.6465   18.9987   20.8772 C   0  0  0  0  0  0  0  0  0  0  0  0
   20.4909   19.4449   19.8951 H   0  0  0  0  0  0  0  0  0  0  0  0
   19.3929   18.5601   21.6019 C   0  0  0  0  0  0  0  0  0  0  0  0
   19.5781   17.6184   22.1365 H   0  0  0  0  0  0  0  0  0  0  0  0
   18.5989   18.3538   20.8716 H   0  0  0  0  0  0  0  0  0  0  0  0
   18.9126   19.6372   22.5960 C   0  0  0  0  0  0  0  0  0  0  0  0
   19.7043   19.8417   23.3301 H   0  0  0  0  0  0  0  0  0  0  0  0
   18.7260   20.5774   22.0587 H   0  0  0  0  0  0  0  0  0  0  0  0
   17.6296   19.2016   23.3321 C   0  0  0  0  0  0  0  0  0  0  0  0
   16.8114   19.0212   22.6226 H   0  0  0  0  0  0  0  0  0  0  0  0
   17.7982   18.2791   23.9031 H   0  0  0  0  0  0  0  0  0  0  0  0
   17.3035   19.9799   24.0344 H   0  0  0  0  0  0  0  0  0  0  0  0
  1  2  1  0  0  0  0
  1  3  2  0  0  0  0
  1  4  1  0  0  0  0
  4  5  1  0  0  0  0
  4  6  2  0  0  0  0
  6  7  1  0  0  0  0
  6  8  1  0  0  0  0
  8  9  1  0  0  0  0
  8 10  1  0  0  0  0
  8 11  1  0  0  0  0
 11 12  1  0  0  0  0
 11 13  1  0  0  0  0
 11 14  1  0  0  0  0
 14 15  1  0  0  0  0
 14 16  1  0  0  0  0
 14 17  1  0  0  0  0
M  END
> <VConfSearch Rank>
441

> <Conf_Id>
36

> <Delta U+W>
0.000

> <U+W>
-53.409

> <U>
9.048

> <W>
-62.457

> <W(PB)>
-64.540

> <W(SA)>
2.084

> <Valence>
2.652

> <Coulomb>
5.578

> <VdW>
0.818

> <VdW6>
-4.534

> <VdW12>
5.352

> <Bond>
0.063

> <Angle>
2.579

> <Pdih>
0.010

> <Idih>
0.000

> <Tether>
0.000

$$$$
VeraChem MOL file


 17 16  0  0  0  0  0  0  0  0999 V2000     
   23.1934   20.1352   22.3425 C   0  0  0  0  0  0  0  0  0  0  0  0
   23.5396   20.6509   21.2963 O   0  5  0  0  0  0  0  0  0  0  0  0
   23.9698   19.8855   23.2439 O   0  0  0  0  0  0  0  0  0  0  0  0
   21.7619   19.7872   22.5519 C   0  0  0  0  0  0  0  0  0  0  0  0
   21.5198   19.3293   23.5083 H   0  0  0  0  0  0  0  0  0  0  0  0
   20.7910   20.0069   21.6363 C   0  0  0  0  0  0  0  0  0  0  0  0
   21.0229   20.4630   20.6741 H   0  0  0  0  0  0  0  0  0  0  0  0
   19.3377   19.6482   21.8565 C   0  0  0  0  0  0  0  0  0  0  0  0
   18.7022   20.2852   21.2267 H   0  0  0  0  0  0  0  0  0  0  0  0
   19.0535   19.8547   22.8973 H   0  0  0  0  0  0  0  0  0  0  0  0
   19.0689   18.1653   21.5279 C   0  0  0  0  0  0  0  0  0  0  0  0
   19.3520   17.9617   20.4858 H   0  0  0  0  0  0  0  0  0  0  0  0
   19.7011   17.5264   22.1601 H   0  0  0  0  0  0  0  0  0  0  0  0
   17.5877   17.7939   21.7410 C   0  0  0  0  0  0  0  0  0  0  0  0
   16.9347   18.3970   21.0965 H   0  0  0  0  0  0  0  0  0  0  0  0
   17.4159   16.7362   21.5024 H   0  0  0  0  0  0  0  0  0  0  0  0
   17.2873   17.9591   22.7840 H   0  0  0  0  0  0  0  0  0  0  0  0
  1  2  1  0  0  0  0
  1  3  2  0  0  0  0
  1  4  1  0  0  0  0
  4  5  1  0  0  0  0
  4  6  2  0  0  0  0
  6  7  1  0  0  0  0
  6  8  1  0  0  0  0
  8  9  1  0  0  0  0
  8 10  1  0  0  0  0
  8 11  1  0  0  0  0
 11 12  1  0  0  0  0
 11 13  1  0  0  0  0
 11 14  1  0  0  0  0
 14 15  1  0  0  0  0
 14 16  1  0  0  0  0
 14 17  1  0  0  0  0
M  END
> <VConfSearch Rank>
442

> <Conf_Id>
1

> <Delta U+W>
0.030

> <U+W>
-53.378

> <U>
9.048

> <W>
-62.426

> <W(PB)>
-64.506

> <W(SA)>
2.080

> <Valence>
2.652

> <Coulomb>
5.578

> <VdW>
0.818

> <VdW6>
-4.535

> <VdW12>
5.352

> <Bond>
0.063

> <Angle>
2.579

> <Pdih>
0.010

> <Idih>
0.000

> <Tether>
0.000

$$$$
VeraChem MOL file


 17 16  0  0  0  0  0  0  0  0999 V2000     
   17.9797   16.8180   21.6043 C   0  0  0  0  0  0  0  0  0  0  0  0
   17.4706   16.7606   22.7079 O   0  5  0  0  0  0  0  0  0  0  0  0
   17.4833   16.3034   20.6211 O   0  0  0  0  0  0  0  0  0  0  0  0
   19.2678   17.5410   21.4254 C   0  0  0  0  0  0  0  0  0  0  0  0
   19.6686   17.5537   20.4145 H   0  0  0  0  0  0  0  0  0  0  0  0
   19.9302   18.1602   22.4288 C   0  0  0  0  0  0  0  0  0  0  0  0
   19.5359   18.1566   23.4448 H   0  0  0  0  0  0  0  0  0  0  0  0
   21.2390   18.8976   22.2384 C   0  0  0  0  0  0  0  0  0  0  0  0
   21.8850   18.3307   21.5544 H   0  0  0  0  0  0  0  0  0  0  0  0
   21.7784   18.9527   23.1936 H   0  0  0  0  0  0  0  0  0  0  0  0
   21.0348   20.3222   21.6777 C   0  0  0  0  0  0  0  0  0  0  0  0
   22.0158   20.7673   21.4618 H   0  0  0  0  0  0  0  0  0  0  0  0
   20.4964   20.2701   20.7212 H   0  0  0  0  0  0  0  0  0  0  0  0
   20.2693   21.2386   22.6559 C   0  0  0  0  0  0  0  0  0  0  0  0
   20.7963   21.3156   23.6159 H   0  0  0  0  0  0  0  0  0  0  0  0
   20.1716   22.2501   22.2408 H   0  0  0  0  0  0  0  0  0  0  0  0
   19.2589   20.8554   22.8493 H   0  0  0  0  0  0  0  0  0  0  0  0
  1  2  1  0  0  0  0
  1  3  2  0  0  0  0
  1  4  1  0  0  0  0
  4  5  1  0  0  0  0
  4  6  2  0  0  0  0
  6  7  1  0  0  0  0
  6  8  1  0  0  0  0
  8  9  1  0  0  0  0
  8 10  1  0  0  0  0
  8 11  1  0  0  0  0
 11 12  1  0  0  0  0
 11 13  1  0  0  0  0
 11 14  1  0  0  0  0
 14 15  1  0  0  0  0
 14 16  1  0  0  0  0
 14 17  1  0  0  0  0
M  END
> <VConfSearch Rank>
443

> <Conf_Id>
3

> <Delta U+W>
0.531

> <U+W>
-52.878

> <U>
10.067

> <W>
-62.945

> <W(PB)>
-64.982

> <W(SA)>
2.037

> <Valence>
2.779

> <Coulomb>
6.474

> <VdW>
0.815

> <VdW6>
-5.088

> <VdW12>
5.902

> <Bond>
0.078

> <Angle>
2.651

> <Pdih>
0.050

> <Idih>
0.000

> <Tether>
0.000

$$$$
VeraChem MOL file


 17 16  0  0  0  0  0  0  0  0999 V2000     
   22.5651   19.6710   20.6297 C   0  0  0  0  0  0  0  0  0  0  0  0
   22.7491   20.2059   19.5537 O   0  5  0  0  0  0  0  0  0  0  0  0
   23.3886   18.9465   21.1565 O   0  0  0  0  0  0  0  0  0  0  0  0
   21.2699   19.9317   21.3143 C   0  0  0  0  0  0  0  0  0  0  0  0
   20.5798   20.5877   20.7889 H   0  0  0  0  0  0  0  0  0  0  0  0
   20.9305   19.4021   22.5118 C   0  0  0  0  0  0  0  0  0  0  0  0
   21.6145   18.7409   23.0433 H   0  0  0  0  0  0  0  0  0  0  0  0
   19.6100   19.6671   23.2049 C   0  0  0  0  0  0  0  0  0  0  0  0
   19.1208   20.5534   22.7784 H   0  0  0  0  0  0  0  0  0  0  0  0
   19.8003   19.9019   24.2607 H   0  0  0  0  0  0  0  0  0  0  0  0
   18.6532   18.4575   23.1253 C   0  0  0  0  0  0  0  0  0  0  0  0
   19.1428   17.5698   23.5494 H   0  0  0  0  0  0  0  0  0  0  0  0
   17.7707   18.6569   23.7487 H   0  0  0  0  0  0  0  0  0  0  0  0
   18.1925   18.1584   21.6827 C   0  0  0  0  0  0  0  0  0  0  0  0
   19.0433   17.8908   21.0427 H   0  0  0  0  0  0  0  0  0  0  0  0
   17.4848   17.3195   21.6695 H   0  0  0  0  0  0  0  0  0  0  0  0
   17.6930   19.0306   21.2414 H   0  0  0  0  0  0  0  0  0  0  0  0
  1  2  1  0  0  0  0
  1  3  2  0  0  0  0
  1  4  1  0  0  0  0
  4  5  1  0  0  0  0
  4  6  2  0  0  0  0
  6  7  1  0  0  0  0
  6  8  1  0  0  0  0
  8  9  1  0  0  0  0
  8 10  1  0  0  0  0
  8 11  1  0  0  0  0
 11 12  1  0  0  0  0
 11 13  1  0  0  0  0
 11 14  1  0  0  0  0
 14 15  1  0  0  0  0
 14 16  1  0  0  0  0
 14 17  1  0  0  0  0
M  END
> <VConfSearch Rank>
444

> <Conf_Id>
45

> <Delta U+W>
0.562

> <U+W>
-52.846

> <U>
10.243

> <W>
-63.089

> <W(PB)>
-65.116

> <W(SA)>
2.026

> <Valence>
2.822

> <Coulomb>
6.637

> <VdW>
0.785

> <VdW6>
-5.216

> <VdW12>
6.001

> <Bond>
0.080

> <Angle>
2.678

> <Pdih>
0.064

> <Idih>
0.000

> <Tether>
0.000

$$$$
VeraChem MOL file


 17 16  0  0  0  0  0  0  0  0999 V2000     
   18.9684   19.7677   25.0608 C   0  0  0  0  0  0  0  0  0  0  0  0
   19.4267   19.3747   26.1158 O   0  5  0  0  0  0  0  0  0  0  0  0
   17.8819   20.3082   24.9730 O   0  0  0  0  0  0  0  0  0  0  0  0
   19.7913   19.5690   23.8371 C   0  0  0  0  0  0  0  0  0  0  0  0
   20.7515   19.0800   23.9851 H   0  0  0  0  0  0  0  0  0  0  0  0
   19.4067   19.9548   22.5992 C   0  0  0  0  0  0  0  0  0  0  0  0
   18.4458   20.4435   22.4393 H   0  0  0  0  0  0  0  0  0  0  0  0
   20.2488   19.7471   21.3595 C   0  0  0  0  0  0  0  0  0  0  0  0
   21.3089   19.9152   21.5931 H   0  0  0  0  0  0  0  0  0  0  0  0
   19.9745   20.4912   20.5996 H   0  0  0  0  0  0  0  0  0  0  0  0
   20.0612   18.3284   20.7840 C   0  0  0  0  0  0  0  0  0  0  0  0
   20.3392   17.5827   21.5417 H   0  0  0  0  0  0  0  0  0  0  0  0
   19.0004   18.1634   20.5493 H   0  0  0  0  0  0  0  0  0  0  0  0
   20.9091   18.1117   19.5145 C   0  0  0  0  0  0  0  0  0  0  0  0
   20.6288   18.8250   18.7283 H   0  0  0  0  0  0  0  0  0  0  0  0
   21.9780   18.2406   19.7294 H   0  0  0  0  0  0  0  0  0  0  0  0
   20.7627   17.0978   19.1200 H   0  0  0  0  0  0  0  0  0  0  0  0
  1  2  1  0  0  0  0
  1  3  2  0  0  0  0
  1  4  1  0  0  0  0
  4  5  1  0  0  0  0
  4  6  2  0  0  0  0
  6  7  1  0  0  0  0
  6  8  1  0  0  0  0
  8  9  1  0  0  0  0
  8 10  1  0  0  0  0
  8 11  1  0  0  0  0
 11 12  1  0  0  0  0
 11 13  1  0  0  0  0
 11 14  1  0  0  0  0
 14 15  1  0  0  0  0
 14 16  1  0  0  0  0
 14 17  1  0  0  0  0
M  END
> <VConfSearch Rank>
445

> <Conf_Id>
36

> <Delta U+W>
0.000

> <U+W>
-53.409

> <U>
9.048

> <W>
-62.457

> <W(PB)>
-64.540

> <W(SA)>
2.084

> <Valence>
2.652

> <Coulomb>
5.578

> <VdW>
0.818

> <VdW6>
-4.534

> <VdW12>
5.352

> <Bond>
0.063

> <Angle>
2.579

> <Pdih>
0.010

> <Idih>
0.000

> <Tether>
0.000

$$$$
VeraChem MOL file


 17 16  0  0  0  0  0  0  0  0999 V2000     
   21.4400   22.1481   21.8028 C   0  0  0  0  0  0  0  0  0  0  0  0
   20.7918   22.8668   22.5401 O   0  5  0  0  0  0  0  0  0  0  0  0
   22.2860   22.5750   21.0413 O   0  0  0  0  0  0  0  0  0  0  0  0
   21.2061   20.6787   21.8166 C   0  0  0  0  0  0  0  0  0  0  0  0
   21.8186   20.0941   21.1340 H   0  0  0  0  0  0  0  0  0  0  0  0
   20.2976   20.0675   22.6105 C   0  0  0  0  0  0  0  0  0  0  0  0
   19.6771   20.6438   23.2966 H   0  0  0  0  0  0  0  0  0  0  0  0
   20.0646   18.5726   22.6171 C   0  0  0  0  0  0  0  0  0  0  0  0
   19.6483   18.2695   23.5873 H   0  0  0  0  0  0  0  0  0  0  0  0
   21.0209   18.0430   22.5082 H   0  0  0  0  0  0  0  0  0  0  0  0
   19.1032   18.1487   21.4879 C   0  0  0  0  0  0  0  0  0  0  0  0
   18.1468   18.6781   21.6003 H   0  0  0  0  0  0  0  0  0  0  0  0
   19.5202   18.4476   20.5162 H   0  0  0  0  0  0  0  0  0  0  0  0
   18.8532   16.6272   21.4936 C   0  0  0  0  0  0  0  0  0  0  0  0
   18.4064   16.3059   22.4436 H   0  0  0  0  0  0  0  0  0  0  0  0
   18.1675   16.3449   20.6841 H   0  0  0  0  0  0  0  0  0  0  0  0
   19.7911   16.0745   21.3514 H   0  0  0  0  0  0  0  0  0  0  0  0
  1  2  1  0  0  0  0
  1  3  2  0  0  0  0
  1  4  1  0  0  0  0
  4  5  1  0  0  0  0
  4  6  2  0  0  0  0
  6  7  1  0  0  0  0
  6  8  1  0  0  0  0
  8  9  1  0  0  0  0
  8 10  1  0  0  0  0
  8 11  1  0  0  0  0
 11 12  1  0  0  0  0
 11 13  1  0  0  0  0
 11 14  1  0  0  0  0
 14 15  1  0  0  0  0
 14 16  1  0  0  0  0
 14 17  1  0  0  0  0
M  END
> <VConfSearch Rank>
446

> <Conf_Id>
1

> <Delta U+W>
0.030

> <U+W>
-53.378

> <U>
9.048

> <W>
-62.426

> <W(PB)>
-64.506

> <W(SA)>
2.080

> <Valence>
2.652

> <Coulomb>
5.578

> <VdW>
0.818

> <VdW6>
-4.535

> <VdW12>
5.352

> <Bond>
0.063

> <Angle>
2.579

> <Pdih>
0.010

> <Idih>
0.000

> <Tether>
0.000

$$$$
VeraChem MOL file


 17 16  0  0  0  0  0  0  0  0999 V2000     
   17.0939   18.2277   21.5833 C   0  0  0  0  0  0  0  0  0  0  0  0
   17.0097   17.3024   22.3688 O   0  5  0  0  0  0  0  0  0  0  0  0
   16.1216   18.7595   21.0835 O   0  0  0  0  0  0  0  0  0  0  0  0
   18.4345   18.7466   21.1992 C   0  0  0  0  0  0  0  0  0  0  0  0
   18.4390   19.5735   20.4928 H   0  0  0  0  0  0  0  0  0  0  0  0
   19.5992   18.2525   21.6772 C   0  0  0  0  0  0  0  0  0  0  0  0
   19.6061   17.4264   22.3879 H   0  0  0  0  0  0  0  0  0  0  0  0
   20.9599   18.7884   21.2846 C   0  0  0  0  0  0  0  0  0  0  0  0
   20.9721   19.0101   20.2088 H   0  0  0  0  0  0  0  0  0  0  0  0
   21.7253   18.0177   21.4470 H   0  0  0  0  0  0  0  0  0  0  0  0
   21.3376   20.0644   22.0687 C   0  0  0  0  0  0  0  0  0  0  0  0
   22.2797   20.4653   21.6701 H   0  0  0  0  0  0  0  0  0  0  0  0
   20.5741   20.8380   21.9071 H   0  0  0  0  0  0  0  0  0  0  0  0
   21.5004   19.8027   23.5812 C   0  0  0  0  0  0  0  0  0  0  0  0
   22.2685   19.0408   23.7674 H   0  0  0  0  0  0  0  0  0  0  0  0
   21.8011   20.7213   24.1016 H   0  0  0  0  0  0  0  0  0  0  0  0
   20.5588   19.4564   24.0269 H   0  0  0  0  0  0  0  0  0  0  0  0
  1  2  1  0  0  0  0
  1  3  2  0  0  0  0
  1  4  1  0  0  0  0
  4  5  1  0  0  0  0
  4  6  2  0  0  0  0
  6  7  1  0  0  0  0
  6  8  1  0  0  0  0
  8  9  1  0  0  0  0
  8 10  1  0  0  0  0
  8 11  1  0  0  0  0
 11 12  1  0  0  0  0
 11 13  1  0  0  0  0
 11 14  1  0  0  0  0
 14 15  1  0  0  0  0
 14 16  1  0  0  0  0
 14 17  1  0  0  0  0
M  END
> <VConfSearch Rank>
447

> <Conf_Id>
3

> <Delta U+W>
0.531

> <U+W>
-52.878

> <U>
10.067

> <W>
-62.945

> <W(PB)>
-64.982

> <W(SA)>
2.037

> <Valence>
2.779

> <Coulomb>
6.474

> <VdW>
0.815

> <VdW6>
-5.088

> <VdW12>
5.902

> <Bond>
0.078

> <Angle>
2.651

> <Pdih>
0.050

> <Idih>
0.000

> <Tether>
0.000

$$$$
VeraChem MOL file


 17 16  0  0  0  0  0  0  0  0999 V2000     
   22.0495   21.2927   21.9623 C   0  0  0  0  0  0  0  0  0  0  0  0
   21.9180   22.4688   21.6846 O   0  5  0  0  0  0  0  0  0  0  0  0
   23.1184   20.7148   21.8995 O   0  0  0  0  0  0  0  0  0  0  0  0
   20.8363   20.5497   22.3986 C   0  0  0  0  0  0  0  0  0  0  0  0
   19.9146   21.1258   22.4326 H   0  0  0  0  0  0  0  0  0  0  0  0
   20.8354   19.2396   22.7351 C   0  0  0  0  0  0  0  0  0  0  0  0
   21.7539   18.6541   22.7002 H   0  0  0  0  0  0  0  0  0  0  0  0
   19.5982   18.4853   23.1762 C   0  0  0  0  0  0  0  0  0  0  0  0
   18.8061   19.1844   23.4770 H   0  0  0  0  0  0  0  0  0  0  0  0
   19.8387   17.8937   24.0696 H   0  0  0  0  0  0  0  0  0  0  0  0
   19.0657   17.5393   22.0776 C   0  0  0  0  0  0  0  0  0  0  0  0
   19.8582   16.8413   21.7742 H   0  0  0  0  0  0  0  0  0  0  0  0
   18.2523   16.9289   22.4936 H   0  0  0  0  0  0  0  0  0  0  0  0
   18.5414   18.3006   20.8413 C   0  0  0  0  0  0  0  0  0  0  0  0
   19.3441   18.8733   20.3590 H   0  0  0  0  0  0  0  0  0  0  0  0
   18.1359   17.6000   20.0999 H   0  0  0  0  0  0  0  0  0  0  0  0
   17.7421   18.9994   21.1204 H   0  0  0  0  0  0  0  0  0  0  0  0
  1  2  1  0  0  0  0
  1  3  2  0  0  0  0
  1  4  1  0  0  0  0
  4  5  1  0  0  0  0
  4  6  2  0  0  0  0
  6  7  1  0  0  0  0
  6  8  1  0  0  0  0
  8  9  1  0  0  0  0
  8 10  1  0  0  0  0
  8 11  1  0  0  0  0
 11 12  1  0  0  0  0
 11 13  1  0  0  0  0
 11 14  1  0  0  0  0
 14 15  1  0  0  0  0
 14 16  1  0  0  0  0
 14 17  1  0  0  0  0
M  END
> <VConfSearch Rank>
448

> <Conf_Id>
45

> <Delta U+W>
0.562

> <U+W>
-52.846

> <U>
10.243

> <W>
-63.089

> <W(PB)>
-65.116

> <W(SA)>
2.026

> <Valence>
2.822

> <Coulomb>
6.637

> <VdW>
0.785

> <VdW6>
-5.216

> <VdW12>
6.001

> <Bond>
0.080

> <Angle>
2.678

> <Pdih>
0.064

> <Idih>
0.000

> <Tether>
0.000

$$$$
VeraChem MOL file


 17 16  0  0  0  0  0  0  0  0999 V2000     
   22.4577   20.7795   20.3190 C   0  0  0  0  0  0  0  0  0  0  0  0
   23.5253   20.3659   19.9105 O   0  5  0  0  0  0  0  0  0  0  0  0
   22.1997   21.9650   20.4103 O   0  0  0  0  0  0  0  0  0  0  0  0
   21.4373   19.7725   20.7175 C   0  0  0  0  0  0  0  0  0  0  0  0
   21.7317   18.7309   20.6113 H   0  0  0  0  0  0  0  0  0  0  0  0
   20.2100   20.0891   21.1894 C   0  0  0  0  0  0  0  0  0  0  0  0
   19.9056   21.1295   21.3021 H   0  0  0  0  0  0  0  0  0  0  0  0
   19.1788   19.0587   21.5946 C   0  0  0  0  0  0  0  0  0  0  0  0
   19.2078   18.2060   20.9025 H   0  0  0  0  0  0  0  0  0  0  0  0
   18.1732   19.4930   21.5132 H   0  0  0  0  0  0  0  0  0  0  0  0
   19.4132   18.5664   23.0374 C   0  0  0  0  0  0  0  0  0  0  0  0
   20.4174   18.1277   23.1194 H   0  0  0  0  0  0  0  0  0  0  0  0
   19.3817   19.4207   23.7278 H   0  0  0  0  0  0  0  0  0  0  0  0
   18.3604   17.5226   23.4614 C   0  0  0  0  0  0  0  0  0  0  0  0
   17.3482   17.9458   23.4190 H   0  0  0  0  0  0  0  0  0  0  0  0
   18.3923   16.6433   22.8047 H   0  0  0  0  0  0  0  0  0  0  0  0
   18.5434   17.1844   24.4896 H   0  0  0  0  0  0  0  0  0  0  0  0
  1  2  1  0  0  0  0
  1  3  2  0  0  0  0
  1  4  1  0  0  0  0
  4  5  1  0  0  0  0
  4  6  2  0  0  0  0
  6  7  1  0  0  0  0
  6  8  1  0  0  0  0
  8  9  1  0  0  0  0
  8 10  1  0  0  0  0
  8 11  1  0  0  0  0
 11 12  1  0  0  0  0
 11 13  1  0  0  0  0
 11 14  1  0  0  0  0
 14 15  1  0  0  0  0
 14 16  1  0  0  0  0
 14 17  1  0  0  0  0
M  END
> <VConfSearch Rank>
449

> <Conf_Id>
36

> <Delta U+W>
0.000

> <U+W>
-53.409

> <U>
9.048

> <W>
-62.457

> <W(PB)>
-64.540

> <W(SA)>
2.084

> <Valence>
2.652

> <Coulomb>
5.578

> <VdW>
0.818

> <VdW6>
-4.534

> <VdW12>
5.352

> <Bond>
0.063

> <Angle>
2.579

> <Pdih>
0.010

> <Idih>
0.000

> <Tether>
0.000

$$$$
VeraChem MOL file


 17 16  0  0  0  0  0  0  0  0999 V2000     
   22.7948   19.1704   23.8213 C   0  0  0  0  0  0  0  0  0  0  0  0
   23.6893   18.6765   23.1608 O   0  5  0  0  0  0  0  0  0  0  0  0
   22.9083   19.4172   25.0061 O   0  0  0  0  0  0  0  0  0  0  0  0
   21.4962   19.4969   23.1722 C   0  0  0  0  0  0  0  0  0  0  0  0
   20.7398   19.9360   23.8186 H   0  0  0  0  0  0  0  0  0  0  0  0
   21.2304   19.2757   21.8647 C   0  0  0  0  0  0  0  0  0  0  0  0
   21.9803   18.8342   21.2087 H   0  0  0  0  0  0  0  0  0  0  0  0
   19.9063   19.6090   21.2129 C   0  0  0  0  0  0  0  0  0  0  0  0
   20.0556   19.7657   20.1361 H   0  0  0  0  0  0  0  0  0  0  0  0
   19.5170   20.5541   21.6152 H   0  0  0  0  0  0  0  0  0  0  0  0
   18.8732   18.4849   21.4325 C   0  0  0  0  0  0  0  0  0  0  0  0
   19.2640   17.5411   21.0273 H   0  0  0  0  0  0  0  0  0  0  0  0
   18.7196   18.3296   22.5094 H   0  0  0  0  0  0  0  0  0  0  0  0
   17.5235   18.8128   20.7631 C   0  0  0  0  0  0  0  0  0  0  0  0
   17.6433   18.9420   19.6794 H   0  0  0  0  0  0  0  0  0  0  0  0
   16.8020   18.0024   20.9300 H   0  0  0  0  0  0  0  0  0  0  0  0
   17.0957   19.7370   21.1734 H   0  0  0  0  0  0  0  0  0  0  0  0
  1  2  1  0  0  0  0
  1  3  2  0  0  0  0
  1  4  1  0  0  0  0
  4  5  1  0  0  0  0
  4  6  2  0  0  0  0
  6  7  1  0  0  0  0
  6  8  1  0  0  0  0
  8  9  1  0  0  0  0
  8 10  1  0  0  0  0
  8 11  1  0  0  0  0
 11 12  1  0  0  0  0
 11 13  1  0  0  0  0
 11 14  1  0  0  0  0
 14 15  1  0  0  0  0
 14 16  1  0  0  0  0
 14 17  1  0  0  0  0
M  END
> <VConfSearch Rank>
450

> <Conf_Id>
1

> <Delta U+W>
0.030

> <U+W>
-53.378

> <U>
9.048

> <W>
-62.426

> <W(PB)>
-64.506

> <W(SA)>
2.080

> <Valence>
2.652

> <Coulomb>
5.578

> <VdW>
0.818

> <VdW6>
-4.535

> <VdW12>
5.352

> <Bond>
0.063

> <Angle>
2.579

> <Pdih>
0.010

> <Idih>
0.000

> <Tether>
0.000

$$$$
VeraChem MOL file


 17 16  0  0  0  0  0  0  0  0999 V2000     
   19.8272   16.0198   22.2770 C   0  0  0  0  0  0  0  0  0  0  0  0
   19.9331   15.7067   21.1061 O   0  5  0  0  0  0  0  0  0  0  0  0
   19.9628   15.2255   23.1873 O   0  0  0  0  0  0  0  0  0  0  0  0
   19.5150   17.4297   22.6359 C   0  0  0  0  0  0  0  0  0  0  0  0
   19.4332   17.6419   23.6994 H   0  0  0  0  0  0  0  0  0  0  0  0
   19.3398   18.4172   21.7287 C   0  0  0  0  0  0  0  0  0  0  0  0
   19.4229   18.2164   20.6608 H   0  0  0  0  0  0  0  0  0  0  0  0
   19.0261   19.8509   22.1016 C   0  0  0  0  0  0  0  0  0  0  0  0
   18.3048   19.8666   22.9299 H   0  0  0  0  0  0  0  0  0  0  0  0
   18.5357   20.3567   21.2590 H   0  0  0  0  0  0  0  0  0  0  0  0
   20.2879   20.6404   22.5142 C   0  0  0  0  0  0  0  0  0  0  0  0
   19.9881   21.6346   22.8731 H   0  0  0  0  0  0  0  0  0  0  0  0
   20.7801   20.1374   23.3580 H   0  0  0  0  0  0  0  0  0  0  0  0
   21.2893   20.8047   21.3511 C   0  0  0  0  0  0  0  0  0  0  0  0
   20.8221   21.3171   20.5000 H   0  0  0  0  0  0  0  0  0  0  0  0
   22.1564   21.3978   21.6693 H   0  0  0  0  0  0  0  0  0  0  0  0
   21.6573   19.8301   21.0046 H   0  0  0  0  0  0  0  0  0  0  0  0
  1  2  1  0  0  0  0
  1  3  2  0  0  0  0
  1  4  1  0  0  0  0
  4  5  1  0  0  0  0
  4  6  2  0  0  0  0
  6  7  1  0  0  0  0
  6  8  1  0  0  0  0
  8  9  1  0  0  0  0
  8 10  1  0  0  0  0
  8 11  1  0  0  0  0
 11 12  1  0  0  0  0
 11 13  1  0  0  0  0
 11 14  1  0  0  0  0
 14 15  1  0  0  0  0
 14 16  1  0  0  0  0
 14 17  1  0  0  0  0
M  END
> <VConfSearch Rank>
451

> <Conf_Id>
3

> <Delta U+W>
0.531

> <U+W>
-52.878

> <U>
10.067

> <W>
-62.945

> <W(PB)>
-64.982

> <W(SA)>
2.037

> <Valence>
2.779

> <Coulomb>
6.474

> <VdW>
0.815

> <VdW6>
-5.088

> <VdW12>
5.902

> <Bond>
0.078

> <Angle>
2.651

> <Pdih>
0.050

> <Idih>
0.000

> <Tether>
0.000

$$$$
VeraChem MOL file


 17 16  0  0  0  0  0  0  0  0999 V2000     
   17.9679   20.5629   23.7913 C   0  0  0  0  0  0  0  0  0  0  0  0
   16.9752   21.1831   23.4629 O   0  5  0  0  0  0  0  0  0  0  0  0
   18.5238   20.7249   24.8614 O   0  0  0  0  0  0  0  0  0  0  0  0
   18.5055   19.5655   22.8268 C   0  0  0  0  0  0  0  0  0  0  0  0
   17.9611   19.4709   21.8901 H   0  0  0  0  0  0  0  0  0  0  0  0
   19.6019   18.8081   23.0587 C   0  0  0  0  0  0  0  0  0  0  0  0
   20.1554   18.8992   23.9930 H   0  0  0  0  0  0  0  0  0  0  0  0
   20.1485   17.7955   22.0737 C   0  0  0  0  0  0  0  0  0  0  0  0
   19.3914   17.5432   21.3188 H   0  0  0  0  0  0  0  0  0  0  0  0
   20.3714   16.8614   22.6065 H   0  0  0  0  0  0  0  0  0  0  0  0
   21.4330   18.2920   21.3746 C   0  0  0  0  0  0  0  0  0  0  0  0
   22.1899   18.5472   22.1292 H   0  0  0  0  0  0  0  0  0  0  0  0
   21.8528   17.4740   20.7731 H   0  0  0  0  0  0  0  0  0  0  0  0
   21.1788   19.5094   20.4602 C   0  0  0  0  0  0  0  0  0  0  0  0
   20.8183   20.3704   21.0380 H   0  0  0  0  0  0  0  0  0  0  0  0
   22.1038   19.8096   19.9511 H   0  0  0  0  0  0  0  0  0  0  0  0
   20.4300   19.2743   19.6927 H   0  0  0  0  0  0  0  0  0  0  0  0
  1  2  1  0  0  0  0
  1  3  2  0  0  0  0
  1  4  1  0  0  0  0
  4  5  1  0  0  0  0
  4  6  2  0  0  0  0
  6  7  1  0  0  0  0
  6  8  1  0  0  0  0
  8  9  1  0  0  0  0
  8 10  1  0  0  0  0
  8 11  1  0  0  0  0
 11 12  1  0  0  0  0
 11 13  1  0  0  0  0
 11 14  1  0  0  0  0
 14 15  1  0  0  0  0
 14 16  1  0  0  0  0
 14 17  1  0  0  0  0
M  END
> <VConfSearch Rank>
452

> <Conf_Id>
45

> <Delta U+W>
0.562

> <U+W>
-52.846

> <U>
10.243

> <W>
-63.089

> <W(PB)>
-65.116

> <W(SA)>
2.026

> <Valence>
2.822

> <Coulomb>
6.637

> <VdW>
0.785

> <VdW6>
-5.216

> <VdW12>
6.001

> <Bond>
0.080

> <Angle>
2.678

> <Pdih>
0.064

> <Idih>
0.000

> <Tether>
0.000

$$$$
VeraChem MOL file


 17 16  0  0  0  0  0  0  0  0999 V2000     
   19.2704   17.9665   25.0006 C   0  0  0  0  0  0  0  0  0  0  0  0
   20.0186   17.7360   25.9306 O   0  5  0  0  0  0  0  0  0  0  0  0
   18.1137   17.5900   24.9744 O   0  0  0  0  0  0  0  0  0  0  0  0
   19.8156   18.7461   23.8564 C   0  0  0  0  0  0  0  0  0  0  0  0
   20.8558   19.0518   23.9431 H   0  0  0  0  0  0  0  0  0  0  0  0
   19.0984   19.0735   22.7575 C   0  0  0  0  0  0  0  0  0  0  0  0
   18.0562   18.7702   22.6593 H   0  0  0  0  0  0  0  0  0  0  0  0
   19.6611   19.8648   21.5972 C   0  0  0  0  0  0  0  0  0  0  0  0
   20.3317   20.6514   21.9692 H   0  0  0  0  0  0  0  0  0  0  0  0
   18.8441   20.3746   21.0691 H   0  0  0  0  0  0  0  0  0  0  0  0
   20.4229   18.9539   20.6128 C   0  0  0  0  0  0  0  0  0  0  0  0
   21.2434   18.4462   21.1387 H   0  0  0  0  0  0  0  0  0  0  0  0
   19.7496   18.1693   20.2406 H   0  0  0  0  0  0  0  0  0  0  0  0
   20.9917   19.7516   19.4221 C   0  0  0  0  0  0  0  0  0  0  0  0
   20.1879   20.2442   18.8592 H   0  0  0  0  0  0  0  0  0  0  0  0
   21.6928   20.5236   19.7654 H   0  0  0  0  0  0  0  0  0  0  0  0
   21.5298   19.0874   18.7333 H   0  0  0  0  0  0  0  0  0  0  0  0
  1  2  1  0  0  0  0
  1  3  2  0  0  0  0
  1  4  1  0  0  0  0
  4  5  1  0  0  0  0
  4  6  2  0  0  0  0
  6  7  1  0  0  0  0
  6  8  1  0  0  0  0
  8  9  1  0  0  0  0
  8 10  1  0  0  0  0
  8 11  1  0  0  0  0
 11 12  1  0  0  0  0
 11 13  1  0  0  0  0
 11 14  1  0  0  0  0
 14 15  1  0  0  0  0
 14 16  1  0  0  0  0
 14 17  1  0  0  0  0
M  END
> <VConfSearch Rank>
453

> <Conf_Id>
36

> <Delta U+W>
0.000

> <U+W>
-53.409

> <U>
9.048

> <W>
-62.457

> <W(PB)>
-64.540

> <W(SA)>
2.084

> <Valence>
2.652

> <Coulomb>
5.578

> <VdW>
0.818

> <VdW6>
-4.534

> <VdW12>
5.352

> <Bond>
0.063

> <Angle>
2.579

> <Pdih>
0.010

> <Idih>
0.000

> <Tether>
0.000

$$$$
VeraChem MOL file


 17 16  0  0  0  0  0  0  0  0999 V2000     
   17.9069   17.9666   24.2944 C   0  0  0  0  0  0  0  0  0  0  0  0
   16.9440   17.4955   23.7187 O   0  5  0  0  0  0  0  0  0  0  0  0
   17.9305   18.1561   25.4949 O   0  0  0  0  0  0  0  0  0  0  0  0
   19.1212   18.3333   23.5164 C   0  0  0  0  0  0  0  0  0  0  0  0
   19.9456   18.7489   24.0914 H   0  0  0  0  0  0  0  0  0  0  0  0
   19.2339   18.1785   22.1776 C   0  0  0  0  0  0  0  0  0  0  0  0
   18.4132   17.7652   21.5915 H   0  0  0  0  0  0  0  0  0  0  0  0
   20.4718   18.5559   21.3937 C   0  0  0  0  0  0  0  0  0  0  0  0
   20.5169   17.9635   20.4699 H   0  0  0  0  0  0  0  0  0  0  0  0
   21.3725   18.3047   21.9703 H   0  0  0  0  0  0  0  0  0  0  0  0
   20.4794   20.0582   21.0444 C   0  0  0  0  0  0  0  0  0  0  0  0
   19.5787   20.3064   20.4659 H   0  0  0  0  0  0  0  0  0  0  0  0
   20.4384   20.6524   21.9678 H   0  0  0  0  0  0  0  0  0  0  0  0
   21.7337   20.4491   20.2372 C   0  0  0  0  0  0  0  0  0  0  0  0
   21.7826   19.8917   19.2926 H   0  0  0  0  0  0  0  0  0  0  0  0
   21.7214   21.5204   19.9982 H   0  0  0  0  0  0  0  0  0  0  0  0
   22.6486   20.2395   20.8069 H   0  0  0  0  0  0  0  0  0  0  0  0
  1  2  1  0  0  0  0
  1  3  2  0  0  0  0
  1  4  1  0  0  0  0
  4  5  1  0  0  0  0
  4  6  2  0  0  0  0
  6  7  1  0  0  0  0
  6  8  1  0  0  0  0
  8  9  1  0  0  0  0
  8 10  1  0  0  0  0
  8 11  1  0  0  0  0
 11 12  1  0  0  0  0
 11 13  1  0  0  0  0
 11 14  1  0  0  0  0
 14 15  1  0  0  0  0
 14 16  1  0  0  0  0
 14 17  1  0  0  0  0
M  END
> <VConfSearch Rank>
454

> <Conf_Id>
1

> <Delta U+W>
0.030

> <U+W>
-53.378

> <U>
9.048

> <W>
-62.426

> <W(PB)>
-64.506

> <W(SA)>
2.080

> <Valence>
2.652

> <Coulomb>
5.578

> <VdW>
0.818

> <VdW6>
-4.535

> <VdW12>
5.352

> <Bond>
0.063

> <Angle>
2.579

> <Pdih>
0.010

> <Idih>
0.000

> <Tether>
0.000

$$$$
VeraChem MOL file


 17 16  0  0  0  0  0  0  0  0999 V2000     
   22.8601   17.9268   21.7929 C   0  0  0  0  0  0  0  0  0  0  0  0
   22.6926   17.1370   20.8827 O   0  5  0  0  0  0  0  0  0  0  0  0
   23.9617   18.2893   22.1577 O   0  0  0  0  0  0  0  0  0  0  0  0
   21.6810   18.4849   22.5086 C   0  0  0  0  0  0  0  0  0  0  0  0
   21.9006   19.1843   23.3120 H   0  0  0  0  0  0  0  0  0  0  0  0
   20.3999   18.1718   22.2090 C   0  0  0  0  0  0  0  0  0  0  0  0
   20.1684   17.4749   21.4038 H   0  0  0  0  0  0  0  0  0  0  0  0
   19.2046   18.7469   22.9394 C   0  0  0  0  0  0  0  0  0  0  0  0
   19.4176   18.7919   24.0160 H   0  0  0  0  0  0  0  0  0  0  0  0
   18.3410   18.0779   22.8259 H   0  0  0  0  0  0  0  0  0  0  0  0
   18.8330   20.1595   22.4374 C   0  0  0  0  0  0  0  0  0  0  0  0
   18.0323   20.5665   23.0702 H   0  0  0  0  0  0  0  0  0  0  0  0
   19.6949   20.8316   22.5509 H   0  0  0  0  0  0  0  0  0  0  0  0
   18.3634   20.1601   20.9669 C   0  0  0  0  0  0  0  0  0  0  0  0
   17.4937   19.5038   20.8322 H   0  0  0  0  0  0  0  0  0  0  0  0
   18.0760   21.1722   20.6540 H   0  0  0  0  0  0  0  0  0  0  0  0
   19.1609   19.8144   20.2963 H   0  0  0  0  0  0  0  0  0  0  0  0
  1  2  1  0  0  0  0
  1  3  2  0  0  0  0
  1  4  1  0  0  0  0
  4  5  1  0  0  0  0
  4  6  2  0  0  0  0
  6  7  1  0  0  0  0
  6  8  1  0  0  0  0
  8  9  1  0  0  0  0
  8 10  1  0  0  0  0
  8 11  1  0  0  0  0
 11 12  1  0  0  0  0
 11 13  1  0  0  0  0
 11 14  1  0  0  0  0
 14 15  1  0  0  0  0
 14 16  1  0  0  0  0
 14 17  1  0  0  0  0
M  END
> <VConfSearch Rank>
455

> <Conf_Id>
3

> <Delta U+W>
0.531

> <U+W>
-52.878

> <U>
10.067

> <W>
-62.945

> <W(PB)>
-64.982

> <W(SA)>
2.037

> <Valence>
2.779

> <Coulomb>
6.474

> <VdW>
0.815

> <VdW6>
-5.088

> <VdW12>
5.902

> <Bond>
0.078

> <Angle>
2.651

> <Pdih>
0.050

> <Idih>
0.000

> <Tether>
0.000

$$$$
VeraChem MOL file


 17 16  0  0  0  0  0  0  0  0999 V2000     
   22.9287   18.6924   21.5868 C   0  0  0  0  0  0  0  0  0  0  0  0
   23.5143   18.4377   20.5524 O   0  5  0  0  0  0  0  0  0  0  0  0
   23.4048   18.4766   22.6855 O   0  0  0  0  0  0  0  0  0  0  0  0
   21.5734   19.2969   21.4784 C   0  0  0  0  0  0  0  0  0  0  0  0
   21.2081   19.4631   20.4677 H   0  0  0  0  0  0  0  0  0  0  0  0
   20.8088   19.6286   22.5438 C   0  0  0  0  0  0  0  0  0  0  0  0
   21.1656   19.4620   23.5599 H   0  0  0  0  0  0  0  0  0  0  0  0
   19.4282   20.2413   22.4303 C   0  0  0  0  0  0  0  0  0  0  0  0
   19.2698   20.6531   21.4243 H   0  0  0  0  0  0  0  0  0  0  0  0
   19.3550   21.0905   23.1227 H   0  0  0  0  0  0  0  0  0  0  0  0
   18.3089   19.2292   22.7588 C   0  0  0  0  0  0  0  0  0  0  0  0
   18.4682   18.8147   23.7640 H   0  0  0  0  0  0  0  0  0  0  0  0
   17.3454   19.7565   22.7858 H   0  0  0  0  0  0  0  0  0  0  0  0
   18.2253   18.0814   21.7300 C   0  0  0  0  0  0  0  0  0  0  0  0
   19.1500   17.4898   21.7204 H   0  0  0  0  0  0  0  0  0  0  0  0
   17.3958   17.4048   21.9730 H   0  0  0  0  0  0  0  0  0  0  0  0
   18.0586   18.4728   20.7180 H   0  0  0  0  0  0  0  0  0  0  0  0
  1  2  1  0  0  0  0
  1  3  2  0  0  0  0
  1  4  1  0  0  0  0
  4  5  1  0  0  0  0
  4  6  2  0  0  0  0
  6  7  1  0  0  0  0
  6  8  1  0  0  0  0
  8  9  1  0  0  0  0
  8 10  1  0  0  0  0
  8 11  1  0  0  0  0
 11 12  1  0  0  0  0
 11 13  1  0  0  0  0
 11 14  1  0  0  0  0
 14 15  1  0  0  0  0
 14 16  1  0  0  0  0
 14 17  1  0  0  0  0
M  END
> <VConfSearch Rank>
456

> <Conf_Id>
45

> <Delta U+W>
0.562

> <U+W>
-52.846

> <U>
10.243

> <W>
-63.089

> <W(PB)>
-65.116

> <W(SA)>
2.026

> <Valence>
2.822

> <Coulomb>
6.637

> <VdW>
0.785

> <VdW6>
-5.216

> <VdW12>
6.001

> <Bond>
0.080

> <Angle>
2.678

> <Pdih>
0.064

> <Idih>
0.000

> <Tether>
0.000

$$$$
VeraChem MOL file


 17 16  0  0  0  0  0  0  0  0999 V2000     
   19.4326   20.8310   19.0625 C   0  0  0  0  0  0  0  0  0  0  0  0
   19.2854   22.0266   18.8996 O   0  5  0  0  0  0  0  0  0  0  0  0
   19.1694   20.0100   18.2039 O   0  0  0  0  0  0  0  0  0  0  0  0
   19.9603   20.3761   20.3773 C   0  0  0  0  0  0  0  0  0  0  0  0
   20.1750   21.1603   21.0996 H   0  0  0  0  0  0  0  0  0  0  0  0
   20.1723   19.0790   20.6964 C   0  0  0  0  0  0  0  0  0  0  0  0
   19.9585   18.2851   19.9811 H   0  0  0  0  0  0  0  0  0  0  0  0
   20.7074   18.6246   22.0367 C   0  0  0  0  0  0  0  0  0  0  0  0
   21.4760   19.3249   22.3913 H   0  0  0  0  0  0  0  0  0  0  0  0
   21.2007   17.6498   21.9245 H   0  0  0  0  0  0  0  0  0  0  0  0
   19.5802   18.5151   23.0839 C   0  0  0  0  0  0  0  0  0  0  0  0
   19.0882   19.4908   23.2004 H   0  0  0  0  0  0  0  0  0  0  0  0
   18.8137   17.8127   22.7279 H   0  0  0  0  0  0  0  0  0  0  0  0
   20.1159   18.0434   24.4506 C   0  0  0  0  0  0  0  0  0  0  0  0
   20.5853   17.0543   24.3685 H   0  0  0  0  0  0  0  0  0  0  0  0
   20.8626   18.7458   24.8436 H   0  0  0  0  0  0  0  0  0  0  0  0
   19.3003   17.9716   25.1819 H   0  0  0  0  0  0  0  0  0  0  0  0
  1  2  1  0  0  0  0
  1  3  2  0  0  0  0
  1  4  1  0  0  0  0
  4  5  1  0  0  0  0
  4  6  2  0  0  0  0
  6  7  1  0  0  0  0
  6  8  1  0  0  0  0
  8  9  1  0  0  0  0
  8 10  1  0  0  0  0
  8 11  1  0  0  0  0
 11 12  1  0  0  0  0
 11 13  1  0  0  0  0
 11 14  1  0  0  0  0
 14 15  1  0  0  0  0
 14 16  1  0  0  0  0
 14 17  1  0  0  0  0
M  END
> <VConfSearch Rank>
457

> <Conf_Id>
36

> <Delta U+W>
0.000

> <U+W>
-53.409

> <U>
9.048

> <W>
-62.457

> <W(PB)>
-64.540

> <W(SA)>
2.084

> <Valence>
2.652

> <Coulomb>
5.578

> <VdW>
0.818

> <VdW6>
-4.534

> <VdW12>
5.352

> <Bond>
0.063

> <Angle>
2.579

> <Pdih>
0.010

> <Idih>
0.000

> <Tether>
0.000

$$$$
VeraChem MOL file


 17 16  0  0  0  0  0  0  0  0999 V2000     
   22.2508   20.2040   19.6463 C   0  0  0  0  0  0  0  0  0  0  0  0
   23.3191   20.2972   20.2212 O   0  5  0  0  0  0  0  0  0  0  0  0
   22.0595   20.6518   18.5325 O   0  0  0  0  0  0  0  0  0  0  0  0
   21.1140   19.5149   20.3149 C   0  0  0  0  0  0  0  0  0  0  0  0
   20.1880   19.4662   19.7465 H   0  0  0  0  0  0  0  0  0  0  0  0
   21.1841   18.9713   21.5513 C   0  0  0  0  0  0  0  0  0  0  0  0
   22.1063   19.0163   22.1304 H   0  0  0  0  0  0  0  0  0  0  0  0
   20.0227   18.2737   22.2248 C   0  0  0  0  0  0  0  0  0  0  0  0
   20.4031   17.5603   22.9682 H   0  0  0  0  0  0  0  0  0  0  0  0
   19.4589   17.6860   21.4876 H   0  0  0  0  0  0  0  0  0  0  0  0
   19.0829   19.2845   22.9133 C   0  0  0  0  0  0  0  0  0  0  0  0
   19.6485   19.8696   23.6517 H   0  0  0  0  0  0  0  0  0  0  0  0
   18.6980   19.9966   22.1701 H   0  0  0  0  0  0  0  0  0  0  0  0
   17.9012   18.5805   23.6102 C   0  0  0  0  0  0  0  0  0  0  0  0
   18.2575   17.8850   24.3814 H   0  0  0  0  0  0  0  0  0  0  0  0
   17.2442   19.3151   24.0940 H   0  0  0  0  0  0  0  0  0  0  0  0
   17.3005   18.0129   22.8875 H   0  0  0  0  0  0  0  0  0  0  0  0
  1  2  1  0  0  0  0
  1  3  2  0  0  0  0
  1  4  1  0  0  0  0
  4  5  1  0  0  0  0
  4  6  2  0  0  0  0
  6  7  1  0  0  0  0
  6  8  1  0  0  0  0
  8  9  1  0  0  0  0
  8 10  1  0  0  0  0
  8 11  1  0  0  0  0
 11 12  1  0  0  0  0
 11 13  1  0  0  0  0
 11 14  1  0  0  0  0
 14 15  1  0  0  0  0
 14 16  1  0  0  0  0
 14 17  1  0  0  0  0
M  END
> <VConfSearch Rank>
458

> <Conf_Id>
1

> <Delta U+W>
0.030

> <U+W>
-53.378

> <U>
9.048

> <W>
-62.426

> <W(PB)>
-64.506

> <W(SA)>
2.080

> <Valence>
2.652

> <Coulomb>
5.578

> <VdW>
0.818

> <VdW6>
-4.535

> <VdW12>
5.352

> <Bond>
0.063

> <Angle>
2.579

> <Pdih>
0.010

> <Idih>
0.000

> <Tether>
0.000

$$$$
VeraChem MOL file


 17 16  0  0  0  0  0  0  0  0999 V2000     
   18.3537   19.1455   24.6449 C   0  0  0  0  0  0  0  0  0  0  0  0
   18.1310   20.3383   24.7358 O   0  5  0  0  0  0  0  0  0  0  0  0
   17.7398   18.3095   25.2789 O   0  0  0  0  0  0  0  0  0  0  0  0
   19.4214   18.6647   23.7268 C   0  0  0  0  0  0  0  0  0  0  0  0
   19.5695   17.5878   23.6937 H   0  0  0  0  0  0  0  0  0  0  0  0
   20.1810   19.4808   22.9613 C   0  0  0  0  0  0  0  0  0  0  0  0
   20.0387   20.5610   22.9842 H   0  0  0  0  0  0  0  0  0  0  0  0
   21.2634   18.9838   22.0262 C   0  0  0  0  0  0  0  0  0  0  0  0
   21.8215   18.1699   22.5084 H   0  0  0  0  0  0  0  0  0  0  0  0
   21.9910   19.7849   21.8389 H   0  0  0  0  0  0  0  0  0  0  0  0
   20.6931   18.4797   20.6823 C   0  0  0  0  0  0  0  0  0  0  0  0
   21.5060   18.0366   20.0907 H   0  0  0  0  0  0  0  0  0  0  0  0
   19.9655   17.6771   20.8665 H   0  0  0  0  0  0  0  0  0  0  0  0
   20.0283   19.6059   19.8622 C   0  0  0  0  0  0  0  0  0  0  0  0
   20.7415   20.4144   19.6552 H   0  0  0  0  0  0  0  0  0  0  0  0
   19.6648   19.2202   18.9010 H   0  0  0  0  0  0  0  0  0  0  0  0
   19.1714   20.0336   20.3988 H   0  0  0  0  0  0  0  0  0  0  0  0
  1  2  1  0  0  0  0
  1  3  2  0  0  0  0
  1  4  1  0  0  0  0
  4  5  1  0  0  0  0
  4  6  2  0  0  0  0
  6  7  1  0  0  0  0
  6  8  1  0  0  0  0
  8  9  1  0  0  0  0
  8 10  1  0  0  0  0
  8 11  1  0  0  0  0
 11 12  1  0  0  0  0
 11 13  1  0  0  0  0
 11 14  1  0  0  0  0
 14 15  1  0  0  0  0
 14 16  1  0  0  0  0
 14 17  1  0  0  0  0
M  END
> <VConfSearch Rank>
459

> <Conf_Id>
3

> <Delta U+W>
0.531

> <U+W>
-52.878

> <U>
10.067

> <W>
-62.945

> <W(PB)>
-64.982

> <W(SA)>
2.037

> <Valence>
2.779

> <Coulomb>
6.474

> <VdW>
0.815

> <VdW6>
-5.088

> <VdW12>
5.902

> <Bond>
0.078

> <Angle>
2.651

> <Pdih>
0.050

> <Idih>
0.000

> <Tether>
0.000

$$$$
VeraChem MOL file


 17 16  0  0  0  0  0  0  0  0999 V2000     
   22.3927   17.9062   20.7133 C   0  0  0  0  0  0  0  0  0  0  0  0
   22.5198   17.5075   19.5720 O   0  5  0  0  0  0  0  0  0  0  0  0
   23.1292   17.5624   21.6187 O   0  0  0  0  0  0  0  0  0  0  0  0
   21.2826   18.8578   20.9893 C   0  0  0  0  0  0  0  0  0  0  0  0
   20.6627   19.1231   20.1361 H   0  0  0  0  0  0  0  0  0  0  0  0
   21.0230   19.3791   22.2102 C   0  0  0  0  0  0  0  0  0  0  0  0
   21.6368   19.1157   23.0712 H   0  0  0  0  0  0  0  0  0  0  0  0
   19.8904   20.3456   22.4886 C   0  0  0  0  0  0  0  0  0  0  0  0
   19.5237   20.7908   21.5537 H   0  0  0  0  0  0  0  0  0  0  0  0
   20.2709   21.1786   23.0947 H   0  0  0  0  0  0  0  0  0  0  0  0
   18.7186   19.6750   23.2385 C   0  0  0  0  0  0  0  0  0  0  0  0
   19.0851   19.2270   24.1726 H   0  0  0  0  0  0  0  0  0  0  0  0
   17.9889   20.4448   23.5249 H   0  0  0  0  0  0  0  0  0  0  0  0
   18.0080   18.5994   22.3894 C   0  0  0  0  0  0  0  0  0  0  0  0
   18.6915   17.7783   22.1372 H   0  0  0  0  0  0  0  0  0  0  0  0
   17.1584   18.1732   22.9385 H   0  0  0  0  0  0  0  0  0  0  0  0
   17.6264   19.0273   21.4532 H   0  0  0  0  0  0  0  0  0  0  0  0
  1  2  1  0  0  0  0
  1  3  2  0  0  0  0
  1  4  1  0  0  0  0
  4  5  1  0  0  0  0
  4  6  2  0  0  0  0
  6  7  1  0  0  0  0
  6  8  1  0  0  0  0
  8  9  1  0  0  0  0
  8 10  1  0  0  0  0
  8 11  1  0  0  0  0
 11 12  1  0  0  0  0
 11 13  1  0  0  0  0
 11 14  1  0  0  0  0
 14 15  1  0  0  0  0
 14 16  1  0  0  0  0
 14 17  1  0  0  0  0
M  END
> <VConfSearch Rank>
460

> <Conf_Id>
45

> <Delta U+W>
0.562

> <U+W>
-52.846

> <U>
10.243

> <W>
-63.089

> <W(PB)>
-65.116

> <W(SA)>
2.026

> <Valence>
2.822

> <Coulomb>
6.637

> <VdW>
0.785

> <VdW6>
-5.216

> <VdW12>
6.001

> <Bond>
0.080

> <Angle>
2.678

> <Pdih>
0.064

> <Idih>
0.000

> <Tether>
0.000

$$$$
VeraChem MOL file


 17 16  0  0  0  0  0  0  0  0999 V2000     
   21.1066   20.0403   18.8660 C   0  0  0  0  0  0  0  0  0  0  0  0
   22.1235   19.7121   18.2866 O   0  5  0  0  0  0  0  0  0  0  0  0
   20.4093   20.9687   18.5023 O   0  0  0  0  0  0  0  0  0  0  0  0
   20.7173   19.2563   20.0693 C   0  0  0  0  0  0  0  0  0  0  0  0
   21.3835   18.4403   20.3400 H   0  0  0  0  0  0  0  0  0  0  0  0
   19.6146   19.5100   20.8100 C   0  0  0  0  0  0  0  0  0  0  0  0
   18.9415   20.3266   20.5492 H   0  0  0  0  0  0  0  0  0  0  0  0
   19.2270   18.7091   22.0338 C   0  0  0  0  0  0  0  0  0  0  0  0
   19.4461   17.6450   21.8711 H   0  0  0  0  0  0  0  0  0  0  0  0
   18.1430   18.7839   22.1942 H   0  0  0  0  0  0  0  0  0  0  0  0
   19.9703   19.2074   23.2900 C   0  0  0  0  0  0  0  0  0  0  0  0
   21.0551   19.1293   23.1327 H   0  0  0  0  0  0  0  0  0  0  0  0
   19.7480   20.2714   23.4518 H   0  0  0  0  0  0  0  0  0  0  0  0
   19.5737   18.4022   24.5437 C   0  0  0  0  0  0  0  0  0  0  0  0
   18.4974   18.4893   24.7425 H   0  0  0  0  0  0  0  0  0  0  0  0
   19.8145   17.3382   24.4197 H   0  0  0  0  0  0  0  0  0  0  0  0
   20.1122   18.7708   25.4265 H   0  0  0  0  0  0  0  0  0  0  0  0
  1  2  1  0  0  0  0
  1  3  2  0  0  0  0
  1  4  1  0  0  0  0
  4  5  1  0  0  0  0
  4  6  2  0  0  0  0
  6  7  1  0  0  0  0
  6  8  1  0  0  0  0
  8  9  1  0  0  0  0
  8 10  1  0  0  0  0
  8 11  1  0  0  0  0
 11 12  1  0  0  0  0
 11 13  1  0  0  0  0
 11 14  1  0  0  0  0
 14 15  1  0  0  0  0
 14 16  1  0  0  0  0
 14 17  1  0  0  0  0
M  END
> <VConfSearch Rank>
461

> <Conf_Id>
36

> <Delta U+W>
0.000

> <U+W>
-53.409

> <U>
9.048

> <W>
-62.457

> <W(PB)>
-64.540

> <W(SA)>
2.084

> <Valence>
2.652

> <Coulomb>
5.578

> <VdW>
0.818

> <VdW6>
-4.534

> <VdW12>
5.352

> <Bond>
0.063

> <Angle>
2.579

> <Pdih>
0.010

> <Idih>
0.000

> <Tether>
0.000

$$$$
VeraChem MOL file


 17 16  0  0  0  0  0  0  0  0999 V2000     
   18.8765   16.0896   20.8836 C   0  0  0  0  0  0  0  0  0  0  0  0
   17.9236   16.3034   20.1578 O   0  5  0  0  0  0  0  0  0  0  0  0
   19.1636   14.9790   21.2860 O   0  0  0  0  0  0  0  0  0  0  0  0
   19.7441   17.2208   21.3098 C   0  0  0  0  0  0  0  0  0  0  0  0
   20.5782   16.9612   21.9577 H   0  0  0  0  0  0  0  0  0  0  0  0
   19.5428   18.5060   20.9399 C   0  0  0  0  0  0  0  0  0  0  0  0
   18.7090   18.7775   20.2928 H   0  0  0  0  0  0  0  0  0  0  0  0
   20.4289   19.6509   21.3793 C   0  0  0  0  0  0  0  0  0  0  0  0
   20.3639   20.4680   20.6481 H   0  0  0  0  0  0  0  0  0  0  0  0
   21.4790   19.3285   21.3950 H   0  0  0  0  0  0  0  0  0  0  0  0
   20.0236   20.1723   22.7732 C   0  0  0  0  0  0  0  0  0  0  0  0
   18.9737   20.4961   22.7544 H   0  0  0  0  0  0  0  0  0  0  0  0
   20.0921   19.3570   23.5068 H   0  0  0  0  0  0  0  0  0  0  0  0
   20.9163   21.3457   23.2245 C   0  0  0  0  0  0  0  0  0  0  0  0
   20.8420   22.1880   22.5241 H   0  0  0  0  0  0  0  0  0  0  0  0
   20.6131   21.7028   24.2172 H   0  0  0  0  0  0  0  0  0  0  0  0
   21.9690   21.0390   23.2816 H   0  0  0  0  0  0  0  0  0  0  0  0
  1  2  1  0  0  0  0
  1  3  2  0  0  0  0
  1  4  1  0  0  0  0
  4  5  1  0  0  0  0
  4  6  2  0  0  0  0
  6  7  1  0  0  0  0
  6  8  1  0  0  0  0
  8  9  1  0  0  0  0
  8 10  1  0  0  0  0
  8 11  1  0  0  0  0
 11 12  1  0  0  0  0
 11 13  1  0  0  0  0
 11 14  1  0  0  0  0
 14 15  1  0  0  0  0
 14 16  1  0  0  0  0
 14 17  1  0  0  0  0
M  END
> <VConfSearch Rank>
462

> <Conf_Id>
1

> <Delta U+W>
0.030

> <U+W>
-53.378

> <U>
9.048

> <W>
-62.426

> <W(PB)>
-64.506

> <W(SA)>
2.080

> <Valence>
2.652

> <Coulomb>
5.578

> <VdW>
0.818

> <VdW6>
-4.535

> <VdW12>
5.352

> <Bond>
0.063

> <Angle>
2.579

> <Pdih>
0.010

> <Idih>
0.000

> <Tether>
0.000

$$$$
VeraChem MOL file


 17 16  0  0  0  0  0  0  0  0999 V2000     
   18.0395   21.2601   22.9844 C   0  0  0  0  0  0  0  0  0  0  0  0
   18.4977   21.5159   24.0822 O   0  5  0  0  0  0  0  0  0  0  0  0
   17.2397   21.9803   22.4191 O   0  0  0  0  0  0  0  0  0  0  0  0
   18.4583   20.0156   22.2845 C   0  0  0  0  0  0  0  0  0  0  0  0
   18.0107   19.8467   21.3078 H   0  0  0  0  0  0  0  0  0  0  0  0
   19.3398   19.1251   22.7933 C   0  0  0  0  0  0  0  0  0  0  0  0
   19.7968   19.2862   23.7694 H   0  0  0  0  0  0  0  0  0  0  0  0
   19.7643   17.8624   22.0733 C   0  0  0  0  0  0  0  0  0  0  0  0
   18.8923   17.4053   21.5862 H   0  0  0  0  0  0  0  0  0  0  0  0
   20.1311   17.1245   22.7994 H   0  0  0  0  0  0  0  0  0  0  0  0
   20.8548   18.1291   21.0125 C   0  0  0  0  0  0  0  0  0  0  0  0
   21.0459   17.2029   20.4532 H   0  0  0  0  0  0  0  0  0  0  0  0
   20.4902   18.8662   20.2837 H   0  0  0  0  0  0  0  0  0  0  0  0
   22.1774   18.6242   21.6355 C   0  0  0  0  0  0  0  0  0  0  0  0
   22.5675   17.8964   22.3589 H   0  0  0  0  0  0  0  0  0  0  0  0
   22.9387   18.7712   20.8585 H   0  0  0  0  0  0  0  0  0  0  0  0
   22.0370   19.5816   22.1541 H   0  0  0  0  0  0  0  0  0  0  0  0
  1  2  1  0  0  0  0
  1  3  2  0  0  0  0
  1  4  1  0  0  0  0
  4  5  1  0  0  0  0
  4  6  2  0  0  0  0
  6  7  1  0  0  0  0
  6  8  1  0  0  0  0
  8  9  1  0  0  0  0
  8 10  1  0  0  0  0
  8 11  1  0  0  0  0
 11 12  1  0  0  0  0
 11 13  1  0  0  0  0
 11 14  1  0  0  0  0
 14 15  1  0  0  0  0
 14 16  1  0  0  0  0
 14 17  1  0  0  0  0
M  END
> <VConfSearch Rank>
463

> <Conf_Id>
3

> <Delta U+W>
0.531

> <U+W>
-52.878

> <U>
10.067

> <W>
-62.945

> <W(PB)>
-64.982

> <W(SA)>
2.037

> <Valence>
2.779

> <Coulomb>
6.474

> <VdW>
0.815

> <VdW6>
-5.088

> <VdW12>
5.902

> <Bond>
0.078

> <Angle>
2.651

> <Pdih>
0.050

> <Idih>
0.000

> <Tether>
0.000

$$$$
VeraChem MOL file


 17 16  0  0  0  0  0  0  0  0999 V2000     
   17.2011   19.9120   21.2091 C   0  0  0  0  0  0  0  0  0  0  0  0
   16.5793   20.9275   21.4540 O   0  5  0  0  0  0  0  0  0  0  0  0
   16.6651   18.8785   20.8554 O   0  0  0  0  0  0  0  0  0  0  0  0
   18.6813   19.9610   21.3526 C   0  0  0  0  0  0  0  0  0  0  0  0
   19.0951   20.9147   21.6718 H   0  0  0  0  0  0  0  0  0  0  0  0
   19.4966   18.9080   21.1160 C   0  0  0  0  0  0  0  0  0  0  0  0
   19.0900   17.9478   20.7993 H   0  0  0  0  0  0  0  0  0  0  0  0
   21.0030   18.9602   21.2655 C   0  0  0  0  0  0  0  0  0  0  0  0
   21.3538   20.0011   21.2822 H   0  0  0  0  0  0  0  0  0  0  0  0
   21.4669   18.4958   20.3851 H   0  0  0  0  0  0  0  0  0  0  0  0
   21.4919   18.2275   22.5341 C   0  0  0  0  0  0  0  0  0  0  0  0
   21.1391   17.1869   22.5195 H   0  0  0  0  0  0  0  0  0  0  0  0
   22.5898   18.1868   22.5239 H   0  0  0  0  0  0  0  0  0  0  0  0
   21.0262   18.9165   23.8346 C   0  0  0  0  0  0  0  0  0  0  0  0
   19.9312   18.9188   23.9115 H   0  0  0  0  0  0  0  0  0  0  0  0
   21.4239   18.3921   24.7131 H   0  0  0  0  0  0  0  0  0  0  0  0
   21.3745   19.9568   23.8740 H   0  0  0  0  0  0  0  0  0  0  0  0
  1  2  1  0  0  0  0
  1  3  2  0  0  0  0
  1  4  1  0  0  0  0
  4  5  1  0  0  0  0
  4  6  2  0  0  0  0
  6  7  1  0  0  0  0
  6  8  1  0  0  0  0
  8  9  1  0  0  0  0
  8 10  1  0  0  0  0
  8 11  1  0  0  0  0
 11 12  1  0  0  0  0
 11 13  1  0  0  0  0
 11 14  1  0  0  0  0
 14 15  1  0  0  0  0
 14 16  1  0  0  0  0
 14 17  1  0  0  0  0
M  END
> <VConfSearch Rank>
464

> <Conf_Id>
45

> <Delta U+W>
0.562

> <U+W>
-52.846

> <U>
10.243

> <W>
-63.089

> <W(PB)>
-65.116

> <W(SA)>
2.026

> <Valence>
2.822

> <Coulomb>
6.637

> <VdW>
0.785

> <VdW6>
-5.216

> <VdW12>
6.001

> <Bond>
0.080

> <Angle>
2.678

> <Pdih>
0.064

> <Idih>
0.000

> <Tether>
0.000

$$$$
VeraChem MOL file


 17 16  0  0  0  0  0  0  0  0999 V2000     
   21.5395   19.2035   18.9169 C   0  0  0  0  0  0  0  0  0  0  0  0
   22.4869   19.8758   18.5590 O   0  5  0  0  0  0  0  0  0  0  0  0
   20.8354   18.5872   18.1393 O   0  0  0  0  0  0  0  0  0  0  0  0
   21.2491   19.1460   20.3752 C   0  0  0  0  0  0  0  0  0  0  0  0
   21.9163   19.7192   21.0149 H   0  0  0  0  0  0  0  0  0  0  0  0
   20.2287   18.4402   20.9133 C   0  0  0  0  0  0  0  0  0  0  0  0
   19.5527   17.8644   20.2814 H   0  0  0  0  0  0  0  0  0  0  0  0
   19.9389   18.3888   22.3974 C   0  0  0  0  0  0  0  0  0  0  0  0
   20.8801   18.3548   22.9629 H   0  0  0  0  0  0  0  0  0  0  0  0
   19.3981   17.4627   22.6348 H   0  0  0  0  0  0  0  0  0  0  0  0
   19.1038   19.6044   22.8493 C   0  0  0  0  0  0  0  0  0  0  0  0
   19.6454   20.5317   22.6163 H   0  0  0  0  0  0  0  0  0  0  0  0
   18.1621   19.6351   22.2838 H   0  0  0  0  0  0  0  0  0  0  0  0
   18.7961   19.5547   24.3594 C   0  0  0  0  0  0  0  0  0  0  0  0
   18.2265   18.6515   24.6148 H   0  0  0  0  0  0  0  0  0  0  0  0
   19.7221   19.5544   24.9492 H   0  0  0  0  0  0  0  0  0  0  0  0
   18.2019   20.4268   24.6619 H   0  0  0  0  0  0  0  0  0  0  0  0
  1  2  1  0  0  0  0
  1  3  2  0  0  0  0
  1  4  1  0  0  0  0
  4  5  1  0  0  0  0
  4  6  2  0  0  0  0
  6  7  1  0  0  0  0
  6  8  1  0  0  0  0
  8  9  1  0  0  0  0
  8 10  1  0  0  0  0
  8 11  1  0  0  0  0
 11 12  1  0  0  0  0
 11 13  1  0  0  0  0
 11 14  1  0  0  0  0
 14 15  1  0  0  0  0
 14 16  1  0  0  0  0
 14 17  1  0  0  0  0
M  END
> <VConfSearch Rank>
465

> <Conf_Id>
36

> <Delta U+W>
0.000

> <U+W>
-53.409

> <U>
9.048

> <W>
-62.457

> <W(PB)>
-64.540

> <W(SA)>
2.084

> <Valence>
2.652

> <Coulomb>
5.578

> <VdW>
0.818

> <VdW6>
-4.534

> <VdW12>
5.352

> <Bond>
0.063

> <Angle>
2.579

> <Pdih>
0.010

> <Idih>
0.000

> <Tether>
0.000

$$$$
VeraChem MOL file


 17 16  0  0  0  0  0  0  0  0999 V2000     
   20.6515   15.7820   21.8325 C   0  0  0  0  0  0  0  0  0  0  0  0
   19.5807   15.2200   21.6979 O   0  5  0  0  0  0  0  0  0  0  0  0
   21.6788   15.1896   22.0994 O   0  0  0  0  0  0  0  0  0  0  0  0
   20.7325   17.2585   21.6665 C   0  0  0  0  0  0  0  0  0  0  0  0
   21.7185   17.6977   21.7999 H   0  0  0  0  0  0  0  0  0  0  0  0
   19.6714   18.0431   21.3707 C   0  0  0  0  0  0  0  0  0  0  0  0
   18.6786   17.6138   21.2371 H   0  0  0  0  0  0  0  0  0  0  0  0
   19.7620   19.5443   21.2054 C   0  0  0  0  0  0  0  0  0  0  0  0
   18.9428   19.8937   20.5626 H   0  0  0  0  0  0  0  0  0  0  0  0
   20.6966   19.8099   20.6926 H   0  0  0  0  0  0  0  0  0  0  0  0
   19.6927   20.2648   22.5674 C   0  0  0  0  0  0  0  0  0  0  0  0
   18.7562   19.9993   23.0773 H   0  0  0  0  0  0  0  0  0  0  0  0
   20.5142   19.9194   23.2103 H   0  0  0  0  0  0  0  0  0  0  0  0
   19.7752   21.7961   22.4068 C   0  0  0  0  0  0  0  0  0  0  0  0
   18.9458   22.1722   21.7934 H   0  0  0  0  0  0  0  0  0  0  0  0
   19.7243   22.2909   23.3854 H   0  0  0  0  0  0  0  0  0  0  0  0
   20.7177   22.0906   21.9268 H   0  0  0  0  0  0  0  0  0  0  0  0
  1  2  1  0  0  0  0
  1  3  2  0  0  0  0
  1  4  1  0  0  0  0
  4  5  1  0  0  0  0
  4  6  2  0  0  0  0
  6  7  1  0  0  0  0
  6  8  1  0  0  0  0
  8  9  1  0  0  0  0
  8 10  1  0  0  0  0
  8 11  1  0  0  0  0
 11 12  1  0  0  0  0
 11 13  1  0  0  0  0
 11 14  1  0  0  0  0
 14 15  1  0  0  0  0
 14 16  1  0  0  0  0
 14 17  1  0  0  0  0
M  END
> <VConfSearch Rank>
466

> <Conf_Id>
1

> <Delta U+W>
0.030

> <U+W>
-53.378

> <U>
9.048

> <W>
-62.426

> <W(PB)>
-64.506

> <W(SA)>
2.080

> <Valence>
2.652

> <Coulomb>
5.578

> <VdW>
0.818

> <VdW6>
-4.535

> <VdW12>
5.352

> <Bond>
0.063

> <Angle>
2.579

> <Pdih>
0.010

> <Idih>
0.000

> <Tether>
0.000

$$$$
VeraChem MOL file


 17 16  0  0  0  0  0  0  0  0999 V2000     
   22.2105   16.9476   21.7242 C   0  0  0  0  0  0  0  0  0  0  0  0
   22.8670   17.4420   20.8270 O   0  5  0  0  0  0  0  0  0  0  0  0
   22.6228   16.0411   22.4213 O   0  0  0  0  0  0  0  0  0  0  0  0
   20.8387   17.4553   21.9974 C   0  0  0  0  0  0  0  0  0  0  0  0
   20.3061   16.9696   22.8118 H   0  0  0  0  0  0  0  0  0  0  0  0
   20.2541   18.4580   21.3032 C   0  0  0  0  0  0  0  0  0  0  0  0
   20.7799   18.9539   20.4876 H   0  0  0  0  0  0  0  0  0  0  0  0
   18.8589   18.9721   21.5896 C   0  0  0  0  0  0  0  0  0  0  0  0
   18.1924   18.1267   21.8077 H   0  0  0  0  0  0  0  0  0  0  0  0
   18.4506   19.4609   20.6947 H   0  0  0  0  0  0  0  0  0  0  0  0
   18.8286   19.9599   22.7765 C   0  0  0  0  0  0  0  0  0  0  0  0
   17.7847   20.2158   23.0044 H   0  0  0  0  0  0  0  0  0  0  0  0
   19.2354   19.4733   23.6738 H   0  0  0  0  0  0  0  0  0  0  0  0
   19.6143   21.2567   22.4870 C   0  0  0  0  0  0  0  0  0  0  0  0
   19.2164   21.7672   21.6003 H   0  0  0  0  0  0  0  0  0  0  0  0
   19.5438   21.9483   23.3365 H   0  0  0  0  0  0  0  0  0  0  0  0
   20.6773   21.0452   22.3127 H   0  0  0  0  0  0  0  0  0  0  0  0
  1  2  1  0  0  0  0
  1  3  2  0  0  0  0
  1  4  1  0  0  0  0
  4  5  1  0  0  0  0
  4  6  2  0  0  0  0
  6  7  1  0  0  0  0
  6  8  1  0  0  0  0
  8  9  1  0  0  0  0
  8 10  1  0  0  0  0
  8 11  1  0  0  0  0
 11 12  1  0  0  0  0
 11 13  1  0  0  0  0
 11 14  1  0  0  0  0
 14 15  1  0  0  0  0
 14 16  1  0  0  0  0
 14 17  1  0  0  0  0
M  END
> <VConfSearch Rank>
467

> <Conf_Id>
3

> <Delta U+W>
0.531

> <U+W>
-52.878

> <U>
10.067

> <W>
-62.945

> <W(PB)>
-64.982

> <W(SA)>
2.037

> <Valence>
2.779

> <Coulomb>
6.474

> <VdW>
0.815

> <VdW6>
-5.088

> <VdW12>
5.902

> <Bond>
0.078

> <Angle>
2.651

> <Pdih>
0.050

> <Idih>
0.000

> <Tether>
0.000

$$$$
VeraChem MOL file


 17 16  0  0  0  0  0  0  0  0999 V2000     
   17.6404   17.7678   23.4496 C   0  0  0  0  0  0  0  0  0  0  0  0
   17.2044   17.9339   24.5721 O   0  5  0  0  0  0  0  0  0  0  0  0
   17.4203   16.7644   22.7975 O   0  0  0  0  0  0  0  0  0  0  0  0
   18.4742   18.8545   22.8683 C   0  0  0  0  0  0  0  0  0  0  0  0
   18.6315   19.7227   23.5040 H   0  0  0  0  0  0  0  0  0  0  0  0
   19.0248   18.8035   21.6339 C   0  0  0  0  0  0  0  0  0  0  0  0
   18.8753   17.9358   20.9918 H   0  0  0  0  0  0  0  0  0  0  0  0
   19.8756   19.9103   21.0459 C   0  0  0  0  0  0  0  0  0  0  0  0
   19.7294   20.8466   21.6015 H   0  0  0  0  0  0  0  0  0  0  0  0
   19.5435   20.1101   20.0184 H   0  0  0  0  0  0  0  0  0  0  0  0
   21.3767   19.5479   21.0256 C   0  0  0  0  0  0  0  0  0  0  0  0
   21.5235   18.6099   20.4723 H   0  0  0  0  0  0  0  0  0  0  0  0
   21.9257   20.3253   20.4766 H   0  0  0  0  0  0  0  0  0  0  0  0
   21.9749   19.4153   22.4425 C   0  0  0  0  0  0  0  0  0  0  0  0
   21.4934   18.6022   23.0012 H   0  0  0  0  0  0  0  0  0  0  0  0
   23.0492   19.1964   22.3890 H   0  0  0  0  0  0  0  0  0  0  0  0
   21.8460   20.3451   23.0116 H   0  0  0  0  0  0  0  0  0  0  0  0
  1  2  1  0  0  0  0
  1  3  2  0  0  0  0
  1  4  1  0  0  0  0
  4  5  1  0  0  0  0
  4  6  2  0  0  0  0
  6  7  1  0  0  0  0
  6  8  1  0  0  0  0
  8  9  1  0  0  0  0
  8 10  1  0  0  0  0
  8 11  1  0  0  0  0
 11 12  1  0  0  0  0
 11 13  1  0  0  0  0
 11 14  1  0  0  0  0
 14 15  1  0  0  0  0
 14 16  1  0  0  0  0
 14 17  1  0  0  0  0
M  END
> <VConfSearch Rank>
468

> <Conf_Id>
45

> <Delta U+W>
0.562

> <U+W>
-52.846

> <U>
10.243

> <W>
-63.089

> <W(PB)>
-65.116

> <W(SA)>
2.026

> <Valence>
2.822

> <Coulomb>
6.637

> <VdW>
0.785

> <VdW6>
-5.216

> <VdW12>
6.001

> <Bond>
0.080

> <Angle>
2.678

> <Pdih>
0.064

> <Idih>
0.000

> <Tether>
0.000

$$$$
VeraChem MOL file


 17 16  0  0  0  0  0  0  0  0999 V2000     
   22.7960   17.6060   20.8014 C   0  0  0  0  0  0  0  0  0  0  0  0
   23.0883   16.4261   20.8082 O   0  5  0  0  0  0  0  0  0  0  0  0
   23.6061   18.4860   20.5781 O   0  0  0  0  0  0  0  0  0  0  0  0
   21.3790   17.9650   21.0798 C   0  0  0  0  0  0  0  0  0  0  0  0
   20.7071   17.1314   21.2711 H   0  0  0  0  0  0  0  0  0  0  0  0
   20.9142   19.2347   21.1055 C   0  0  0  0  0  0  0  0  0  0  0  0
   21.5792   20.0775   20.9176 H   0  0  0  0  0  0  0  0  0  0  0  0
   19.4719   19.5913   21.3916 C   0  0  0  0  0  0  0  0  0  0  0  0
   18.8032   18.8583   20.9202 H   0  0  0  0  0  0  0  0  0  0  0  0
   19.2370   20.5644   20.9396 H   0  0  0  0  0  0  0  0  0  0  0  0
   19.1971   19.6469   22.9083 C   0  0  0  0  0  0  0  0  0  0  0  0
   19.4276   18.6726   23.3614 H   0  0  0  0  0  0  0  0  0  0  0  0
   19.8657   20.3822   23.3772 H   0  0  0  0  0  0  0  0  0  0  0  0
   17.7311   20.0190   23.2085 C   0  0  0  0  0  0  0  0  0  0  0  0
   17.4830   21.0047   22.7933 H   0  0  0  0  0  0  0  0  0  0  0  0
   17.0422   19.2815   22.7763 H   0  0  0  0  0  0  0  0  0  0  0  0
   17.5549   20.0535   24.2915 H   0  0  0  0  0  0  0  0  0  0  0  0
  1  2  1  0  0  0  0
  1  3  2  0  0  0  0
  1  4  1  0  0  0  0
  4  5  1  0  0  0  0
  4  6  2  0  0  0  0
  6  7  1  0  0  0  0
  6  8  1  0  0  0  0
  8  9  1  0  0  0  0
  8 10  1  0  0  0  0
  8 11  1  0  0  0  0
 11 12  1  0  0  0  0
 11 13  1  0  0  0  0
 11 14  1  0  0  0  0
 14 15  1  0  0  0  0
 14 16  1  0  0  0  0
 14 17  1  0  0  0  0
M  END
> <VConfSearch Rank>
469

> <Conf_Id>
36

> <Delta U+W>
0.000

> <U+W>
-53.409

> <U>
9.048

> <W>
-62.457

> <W(PB)>
-64.540

> <W(SA)>
2.084

> <Valence>
2.652

> <Coulomb>
5.578

> <VdW>
0.818

> <VdW6>
-4.534

> <VdW12>
5.352

> <Bond>
0.063

> <Angle>
2.579

> <Pdih>
0.010

> <Idih>
0.000

> <Tether>
0.000

$$$$
VeraChem MOL file


 17 16  0  0  0  0  0  0  0  0999 V2000     
   18.6441   20.7005   19.2835 C   0  0  0  0  0  0  0  0  0  0  0  0
   17.9606   19.8872   18.6904 O   0  5  0  0  0  0  0  0  0  0  0  0
   18.9068   21.7976   18.8305 O   0  0  0  0  0  0  0  0  0  0  0  0
   19.1929   20.3609   20.6243 C   0  0  0  0  0  0  0  0  0  0  0  0
   19.7951   21.1318   21.0998 H   0  0  0  0  0  0  0  0  0  0  0  0
   18.9824   19.1793   21.2477 C   0  0  0  0  0  0  0  0  0  0  0  0
   18.3825   18.3992   20.7794 H   0  0  0  0  0  0  0  0  0  0  0  0
   19.5458   18.8412   22.6106 C   0  0  0  0  0  0  0  0  0  0  0  0
   18.9189   18.0762   23.0883 H   0  0  0  0  0  0  0  0  0  0  0  0
   19.5103   19.7255   23.2615 H   0  0  0  0  0  0  0  0  0  0  0  0
   20.9969   18.3287   22.5075 C   0  0  0  0  0  0  0  0  0  0  0  0
   21.0295   17.4431   21.8577 H   0  0  0  0  0  0  0  0  0  0  0  0
   21.6264   19.0946   22.0335 H   0  0  0  0  0  0  0  0  0  0  0  0
   21.5753   17.9731   23.8919 C   0  0  0  0  0  0  0  0  0  0  0  0
   20.9821   17.1856   24.3752 H   0  0  0  0  0  0  0  0  0  0  0  0
   22.6073   17.6107   23.7984 H   0  0  0  0  0  0  0  0  0  0  0  0
   21.5828   18.8506   24.5517 H   0  0  0  0  0  0  0  0  0  0  0  0
  1  2  1  0  0  0  0
  1  3  2  0  0  0  0
  1  4  1  0  0  0  0
  4  5  1  0  0  0  0
  4  6  2  0  0  0  0
  6  7  1  0  0  0  0
  6  8  1  0  0  0  0
  8  9  1  0  0  0  0
  8 10  1  0  0  0  0
  8 11  1  0  0  0  0
 11 12  1  0  0  0  0
 11 13  1  0  0  0  0
 11 14  1  0  0  0  0
 14 15  1  0  0  0  0
 14 16  1  0  0  0  0
 14 17  1  0  0  0  0
M  END
> <VConfSearch Rank>
470

> <Conf_Id>
1

> <Delta U+W>
0.030

> <U+W>
-53.378

> <U>
9.048

> <W>
-62.426

> <W(PB)>
-64.506

> <W(SA)>
2.080

> <Valence>
2.652

> <Coulomb>
5.578

> <VdW>
0.818

> <VdW6>
-4.535

> <VdW12>
5.352

> <Bond>
0.063

> <Angle>
2.579

> <Pdih>
0.010

> <Idih>
0.000

> <Tether>
0.000

$$$$
VeraChem MOL file


 17 16  0  0  0  0  0  0  0  0999 V2000     
   18.9416   21.9241   22.5987 C   0  0  0  0  0  0  0  0  0  0  0  0
   19.9067   22.5905   22.2746 O   0  5  0  0  0  0  0  0  0  0  0  0
   17.8318   22.3979   22.7457 O   0  0  0  0  0  0  0  0  0  0  0  0
   19.1021   20.4637   22.8345 C   0  0  0  0  0  0  0  0  0  0  0  0
   18.2008   19.9274   23.1222 H   0  0  0  0  0  0  0  0  0  0  0  0
   20.2759   19.8042   22.7068 C   0  0  0  0  0  0  0  0  0  0  0  0
   21.1843   20.3311   22.4156 H   0  0  0  0  0  0  0  0  0  0  0  0
   20.4308   18.3168   22.9446 C   0  0  0  0  0  0  0  0  0  0  0  0
   19.8407   18.0208   23.8226 H   0  0  0  0  0  0  0  0  0  0  0  0
   21.4768   18.0847   23.1864 H   0  0  0  0  0  0  0  0  0  0  0  0
   19.9837   17.4773   21.7277 C   0  0  0  0  0  0  0  0  0  0  0  0
   20.0179   16.4120   21.9942 H   0  0  0  0  0  0  0  0  0  0  0  0
   18.9370   17.7064   21.4841 H   0  0  0  0  0  0  0  0  0  0  0  0
   20.8704   17.7157   20.4868 C   0  0  0  0  0  0  0  0  0  0  0  0
   21.9206   17.4807   20.7036 H   0  0  0  0  0  0  0  0  0  0  0  0
   20.5460   17.0799   19.6529 H   0  0  0  0  0  0  0  0  0  0  0  0
   20.8143   18.7606   20.1548 H   0  0  0  0  0  0  0  0  0  0  0  0
  1  2  1  0  0  0  0
  1  3  2  0  0  0  0
  1  4  1  0  0  0  0
  4  5  1  0  0  0  0
  4  6  2  0  0  0  0
  6  7  1  0  0  0  0
  6  8  1  0  0  0  0
  8  9  1  0  0  0  0
  8 10  1  0  0  0  0
  8 11  1  0  0  0  0
 11 12  1  0  0  0  0
 11 13  1  0  0  0  0
 11 14  1  0  0  0  0
 14 15  1  0  0  0  0
 14 16  1  0  0  0  0
 14 17  1  0  0  0  0
M  END
> <VConfSearch Rank>
471

> <Conf_Id>
3

> <Delta U+W>
0.531

> <U+W>
-52.878

> <U>
10.067

> <W>
-62.945

> <W(PB)>
-64.982

> <W(SA)>
2.037

> <Valence>
2.779

> <Coulomb>
6.474

> <VdW>
0.815

> <VdW6>
-5.088

> <VdW12>
5.902

> <Bond>
0.078

> <Angle>
2.651

> <Pdih>
0.050

> <Idih>
0.000

> <Tether>
0.000

$$$$
VeraChem MOL file


 17 16  0  0  0  0  0  0  0  0999 V2000     
   20.7472   20.6603   19.6090 C   0  0  0  0  0  0  0  0  0  0  0  0
   20.3542   21.7444   19.2243 O   0  5  0  0  0  0  0  0  0  0  0  0
   21.2682   19.8464   18.8697 O   0  0  0  0  0  0  0  0  0  0  0  0
   20.5752   20.3392   21.0517 C   0  0  0  0  0  0  0  0  0  0  0  0
   20.1027   21.1103   21.6557 H   0  0  0  0  0  0  0  0  0  0  0  0
   20.9630   19.1725   21.6155 C   0  0  0  0  0  0  0  0  0  0  0  0
   21.4338   18.3931   21.0168 H   0  0  0  0  0  0  0  0  0  0  0  0
   20.7841   18.8474   23.0840 C   0  0  0  0  0  0  0  0  0  0  0  0
   20.5975   19.7625   23.6624 H   0  0  0  0  0  0  0  0  0  0  0  0
   21.7198   18.4252   23.4742 H   0  0  0  0  0  0  0  0  0  0  0  0
   19.6402   17.8384   23.3259 C   0  0  0  0  0  0  0  0  0  0  0  0
   19.8247   16.9237   22.7456 H   0  0  0  0  0  0  0  0  0  0  0  0
   19.6399   17.5438   24.3844 H   0  0  0  0  0  0  0  0  0  0  0  0
   18.2543   18.4137   22.9637 C   0  0  0  0  0  0  0  0  0  0  0  0
   18.1947   18.6607   21.8958 H   0  0  0  0  0  0  0  0  0  0  0  0
   17.4639   17.6848   23.1848 H   0  0  0  0  0  0  0  0  0  0  0  0
   18.0454   19.3254   23.5383 H   0  0  0  0  0  0  0  0  0  0  0  0
  1  2  1  0  0  0  0
  1  3  2  0  0  0  0
  1  4  1  0  0  0  0
  4  5  1  0  0  0  0
  4  6  2  0  0  0  0
  6  7  1  0  0  0  0
  6  8  1  0  0  0  0
  8  9  1  0  0  0  0
  8 10  1  0  0  0  0
  8 11  1  0  0  0  0
 11 12  1  0  0  0  0
 11 13  1  0  0  0  0
 11 14  1  0  0  0  0
 14 15  1  0  0  0  0
 14 16  1  0  0  0  0
 14 17  1  0  0  0  0
M  END
> <VConfSearch Rank>
472

> <Conf_Id>
45

> <Delta U+W>
0.562

> <U+W>
-52.846

> <U>
10.243

> <W>
-63.089

> <W(PB)>
-65.116

> <W(SA)>
2.026

> <Valence>
2.822

> <Coulomb>
6.637

> <VdW>
0.785

> <VdW6>
-5.216

> <VdW12>
6.001

> <Bond>
0.080

> <Angle>
2.678

> <Pdih>
0.064

> <Idih>
0.000

> <Tether>
0.000

$$$$
VeraChem MOL file


 17 16  0  0  0  0  0  0  0  0999 V2000     
   19.9470   22.4896   21.9919 C   0  0  0  0  0  0  0  0  0  0  0  0
   19.8642   23.2359   22.9478 O   0  5  0  0  0  0  0  0  0  0  0  0
   19.7994   22.8668   20.8446 O   0  0  0  0  0  0  0  0  0  0  0  0
   20.2442   21.0568   22.2620 C   0  0  0  0  0  0  0  0  0  0  0  0
   20.3646   20.7862   23.3085 H   0  0  0  0  0  0  0  0  0  0  0  0
   20.3630   20.1167   21.2970 C   0  0  0  0  0  0  0  0  0  0  0  0
   20.2419   20.3765   20.2455 H   0  0  0  0  0  0  0  0  0  0  0  0
   20.6632   18.6611   21.5804 C   0  0  0  0  0  0  0  0  0  0  0  0
   21.3864   18.5801   22.4033 H   0  0  0  0  0  0  0  0  0  0  0  0
   21.1382   18.2056   20.7010 H   0  0  0  0  0  0  0  0  0  0  0  0
   19.3806   17.8817   21.9359 C   0  0  0  0  0  0  0  0  0  0  0  0
   18.9063   18.3337   22.8181 H   0  0  0  0  0  0  0  0  0  0  0  0
   18.6597   17.9625   21.1105 H   0  0  0  0  0  0  0  0  0  0  0  0
   19.6768   16.3949   22.2170 C   0  0  0  0  0  0  0  0  0  0  0  0
   20.1230   15.9102   21.3387 H   0  0  0  0  0  0  0  0  0  0  0  0
   20.3722   16.2853   23.0595 H   0  0  0  0  0  0  0  0  0  0  0  0
   18.7532   15.8572   22.4680 H   0  0  0  0  0  0  0  0  0  0  0  0
  1  2  1  0  0  0  0
  1  3  2  0  0  0  0
  1  4  1  0  0  0  0
  4  5  1  0  0  0  0
  4  6  2  0  0  0  0
  6  7  1  0  0  0  0
  6  8  1  0  0  0  0
  8  9  1  0  0  0  0
  8 10  1  0  0  0  0
  8 11  1  0  0  0  0
 11 12  1  0  0  0  0
 11 13  1  0  0  0  0
 11 14  1  0  0  0  0
 14 15  1  0  0  0  0
 14 16  1  0  0  0  0
 14 17  1  0  0  0  0
M  END
> <VConfSearch Rank>
473

> <Conf_Id>
36

> <Delta U+W>
0.000

> <U+W>
-53.409

> <U>
9.048

> <W>
-62.457

> <W(PB)>
-64.540

> <W(SA)>
2.084

> <Valence>
2.652

> <Coulomb>
5.578

> <VdW>
0.818

> <VdW6>
-4.534

> <VdW12>
5.352

> <Bond>
0.063

> <Angle>
2.579

> <Pdih>
0.010

> <Idih>
0.000

> <Tether>
0.000

$$$$
VeraChem MOL file


 17 16  0  0  0  0  0  0  0  0999 V2000     
   20.2368   22.3085   22.9088 C   0  0  0  0  0  0  0  0  0  0  0  0
   19.4793   22.9489   22.2043 O   0  5  0  0  0  0  0  0  0  0  0  0
   21.0442   22.8290   23.6537 O   0  0  0  0  0  0  0  0  0  0  0  0
   20.1909   20.8216   22.8756 C   0  0  0  0  0  0  0  0  0  0  0  0
   20.8941   20.3103   23.5292 H   0  0  0  0  0  0  0  0  0  0  0  0
   19.3455   20.1108   22.0952 C   0  0  0  0  0  0  0  0  0  0  0  0
   18.6385   20.6128   21.4350 H   0  0  0  0  0  0  0  0  0  0  0  0
   19.3066   18.5985   22.0661 C   0  0  0  0  0  0  0  0  0  0  0  0
   18.3132   18.2624   21.7394 H   0  0  0  0  0  0  0  0  0  0  0  0
   19.4541   18.1995   23.0789 H   0  0  0  0  0  0  0  0  0  0  0  0
   20.3819   18.0268   21.1196 C   0  0  0  0  0  0  0  0  0  0  0  0
   20.2309   18.4257   20.1068 H   0  0  0  0  0  0  0  0  0  0  0  0
   21.3768   18.3588   21.4474 H   0  0  0  0  0  0  0  0  0  0  0  0
   20.3427   16.4860   21.0772 C   0  0  0  0  0  0  0  0  0  0  0  0
   19.3677   16.1273   20.7218 H   0  0  0  0  0  0  0  0  0  0  0  0
   21.1140   16.0980   20.3993 H   0  0  0  0  0  0  0  0  0  0  0  0
   20.5222   16.0609   22.0735 H   0  0  0  0  0  0  0  0  0  0  0  0
  1  2  1  0  0  0  0
  1  3  2  0  0  0  0
  1  4  1  0  0  0  0
  4  5  1  0  0  0  0
  4  6  2  0  0  0  0
  6  7  1  0  0  0  0
  6  8  1  0  0  0  0
  8  9  1  0  0  0  0
  8 10  1  0  0  0  0
  8 11  1  0  0  0  0
 11 12  1  0  0  0  0
 11 13  1  0  0  0  0
 11 14  1  0  0  0  0
 14 15  1  0  0  0  0
 14 16  1  0  0  0  0
 14 17  1  0  0  0  0
M  END
> <VConfSearch Rank>
474

> <Conf_Id>
1

> <Delta U+W>
0.030

> <U+W>
-53.378

> <U>
9.048

> <W>
-62.426

> <W(PB)>
-64.506

> <W(SA)>
2.080

> <Valence>
2.652

> <Coulomb>
5.578

> <VdW>
0.818

> <VdW6>
-4.535

> <VdW12>
5.352

> <Bond>
0.063

> <Angle>
2.579

> <Pdih>
0.010

> <Idih>
0.000

> <Tether>
0.000

$$$$
VeraChem MOL file


 17 16  0  0  0  0  0  0  0  0999 V2000     
   21.4505   18.8415   24.7675 C   0  0  0  0  0  0  0  0  0  0  0  0
   20.7980   19.6250   25.4314 O   0  5  0  0  0  0  0  0  0  0  0  0
   22.1973   18.0197   25.2622 O   0  0  0  0  0  0  0  0  0  0  0  0
   21.3498   18.8732   23.2833 C   0  0  0  0  0  0  0  0  0  0  0  0
   21.9597   18.1473   22.7505 H   0  0  0  0  0  0  0  0  0  0  0  0
   20.5595   19.7318   22.5997 C   0  0  0  0  0  0  0  0  0  0  0  0
   19.9418   20.4609   23.1237 H   0  0  0  0  0  0  0  0  0  0  0  0
   20.4592   19.7556   21.0890 C   0  0  0  0  0  0  0  0  0  0  0  0
   21.4570   19.6156   20.6514 H   0  0  0  0  0  0  0  0  0  0  0  0
   20.1136   20.7427   20.7537 H   0  0  0  0  0  0  0  0  0  0  0  0
   19.5106   18.6644   20.5458 C   0  0  0  0  0  0  0  0  0  0  0  0
   19.5590   18.6605   19.4481 H   0  0  0  0  0  0  0  0  0  0  0  0
   19.8546   17.6753   20.8786 H   0  0  0  0  0  0  0  0  0  0  0  0
   18.0469   18.8808   20.9855 C   0  0  0  0  0  0  0  0  0  0  0  0
   17.6773   19.8594   20.6523 H   0  0  0  0  0  0  0  0  0  0  0  0
   17.3965   18.1084   20.5551 H   0  0  0  0  0  0  0  0  0  0  0  0
   17.9501   18.8316   22.0779 H   0  0  0  0  0  0  0  0  0  0  0  0
  1  2  1  0  0  0  0
  1  3  2  0  0  0  0
  1  4  1  0  0  0  0
  4  5  1  0  0  0  0
  4  6  2  0  0  0  0
  6  7  1  0  0  0  0
  6  8  1  0  0  0  0
  8  9  1  0  0  0  0
  8 10  1  0  0  0  0
  8 11  1  0  0  0  0
 11 12  1  0  0  0  0
 11 13  1  0  0  0  0
 11 14  1  0  0  0  0
 14 15  1  0  0  0  0
 14 16  1  0  0  0  0
 14 17  1  0  0  0  0
M  END
> <VConfSearch Rank>
475

> <Conf_Id>
3

> <Delta U+W>
0.531

> <U+W>
-52.878

> <U>
10.067

> <W>
-62.945

> <W(PB)>
-64.982

> <W(SA)>
2.037

> <Valence>
2.779

> <Coulomb>
6.474

> <VdW>
0.815

> <VdW6>
-5.088

> <VdW12>
5.902

> <Bond>
0.078

> <Angle>
2.651

> <Pdih>
0.050

> <Idih>
0.000

> <Tether>
0.000

$$$$
VeraChem MOL file


 17 16  0  0  0  0  0  0  0  0999 V2000     
   22.8764   19.1991   21.2388 C   0  0  0  0  0  0  0  0  0  0  0  0
   23.3675   19.5724   20.1913 O   0  5  0  0  0  0  0  0  0  0  0  0
   23.4549   18.4599   22.0130 O   0  0  0  0  0  0  0  0  0  0  0  0
   21.5084   19.6834   21.5676 C   0  0  0  0  0  0  0  0  0  0  0  0
   21.0490   20.3406   20.8329 H   0  0  0  0  0  0  0  0  0  0  0  0
   20.8408   19.3475   22.6950 C   0  0  0  0  0  0  0  0  0  0  0  0
   21.2922   18.6866   23.4346 H   0  0  0  0  0  0  0  0  0  0  0  0
   19.4471   19.8400   23.0257 C   0  0  0  0  0  0  0  0  0  0  0  0
   19.1906   20.7145   22.4124 H   0  0  0  0  0  0  0  0  0  0  0  0
   19.4260   20.1821   24.0690 H   0  0  0  0  0  0  0  0  0  0  0  0
   18.3774   18.7422   22.8369 C   0  0  0  0  0  0  0  0  0  0  0  0
   18.6345   17.8659   23.4481 H   0  0  0  0  0  0  0  0  0  0  0  0
   17.4131   19.1133   23.2106 H   0  0  0  0  0  0  0  0  0  0  0  0
   18.2154   18.3181   21.3615 C   0  0  0  0  0  0  0  0  0  0  0  0
   19.1435   17.8812   20.9708 H   0  0  0  0  0  0  0  0  0  0  0  0
   17.4215   17.5668   21.2607 H   0  0  0  0  0  0  0  0  0  0  0  0
   17.9504   19.1781   20.7328 H   0  0  0  0  0  0  0  0  0  0  0  0
  1  2  1  0  0  0  0
  1  3  2  0  0  0  0
  1  4  1  0  0  0  0
  4  5  1  0  0  0  0
  4  6  2  0  0  0  0
  6  7  1  0  0  0  0
  6  8  1  0  0  0  0
  8  9  1  0  0  0  0
  8 10  1  0  0  0  0
  8 11  1  0  0  0  0
 11 12  1  0  0  0  0
 11 13  1  0  0  0  0
 11 14  1  0  0  0  0
 14 15  1  0  0  0  0
 14 16  1  0  0  0  0
 14 17  1  0  0  0  0
M  END
> <VConfSearch Rank>
476

> <Conf_Id>
45

> <Delta U+W>
0.562

> <U+W>
-52.846

> <U>
10.243

> <W>
-63.089

> <W(PB)>
-65.116

> <W(SA)>
2.026

> <Valence>
2.822

> <Coulomb>
6.637

> <VdW>
0.785

> <VdW6>
-5.216

> <VdW12>
6.001

> <Bond>
0.080

> <Angle>
2.678

> <Pdih>
0.064

> <Idih>
0.000

> <Tether>
0.000

$$$$
VeraChem MOL file


 17 16  0  0  0  0  0  0  0  0999 V2000     
   19.8284   21.8121   23.9361 C   0  0  0  0  0  0  0  0  0  0  0  0
   20.3480   22.9036   23.8076 O   0  5  0  0  0  0  0  0  0  0  0  0
   19.3214   21.4403   24.9778 O   0  0  0  0  0  0  0  0  0  0  0  0
   19.8232   20.9096   22.7531 C   0  0  0  0  0  0  0  0  0  0  0  0
   20.2924   21.3028   21.8541 H   0  0  0  0  0  0  0  0  0  0  0  0
   19.2825   19.6700   22.7531 C   0  0  0  0  0  0  0  0  0  0  0  0
   18.8121   19.2652   23.6490 H   0  0  0  0  0  0  0  0  0  0  0  0
   19.2834   18.7575   21.5462 C   0  0  0  0  0  0  0  0  0  0  0  0
   19.1106   19.3428   20.6327 H   0  0  0  0  0  0  0  0  0  0  0  0
   18.4509   18.0452   21.6230 H   0  0  0  0  0  0  0  0  0  0  0  0
   20.6136   17.9859   21.4261 C   0  0  0  0  0  0  0  0  0  0  0  0
   21.4472   18.6973   21.3449 H   0  0  0  0  0  0  0  0  0  0  0  0
   20.7832   17.3997   22.3400 H   0  0  0  0  0  0  0  0  0  0  0  0
   20.6189   17.0464   20.2035 C   0  0  0  0  0  0  0  0  0  0  0  0
   19.8135   16.3037   20.2750 H   0  0  0  0  0  0  0  0  0  0  0  0
   20.4820   17.6123   19.2726 H   0  0  0  0  0  0  0  0  0  0  0  0
   21.5724   16.5067   20.1347 H   0  0  0  0  0  0  0  0  0  0  0  0
  1  2  1  0  0  0  0
  1  3  2  0  0  0  0
  1  4  1  0  0  0  0
  4  5  1  0  0  0  0
  4  6  2  0  0  0  0
  6  7  1  0  0  0  0
  6  8  1  0  0  0  0
  8  9  1  0  0  0  0
  8 10  1  0  0  0  0
  8 11  1  0  0  0  0
 11 12  1  0  0  0  0
 11 13  1  0  0  0  0
 11 14  1  0  0  0  0
 14 15  1  0  0  0  0
 14 16  1  0  0  0  0
 14 17  1  0  0  0  0
M  END
> <VConfSearch Rank>
477

> <Conf_Id>
36

> <Delta U+W>
0.000

> <U+W>
-53.409

> <U>
9.048

> <W>
-62.457

> <W(PB)>
-64.540

> <W(SA)>
2.084

> <Valence>
2.652

> <Coulomb>
5.578

> <VdW>
0.818

> <VdW6>
-4.534

> <VdW12>
5.352

> <Bond>
0.063

> <Angle>
2.579

> <Pdih>
0.010

> <Idih>
0.000

> <Tether>
0.000

$$$$
VeraChem MOL file


 17 16  0  0  0  0  0  0  0  0999 V2000     
   23.2253   19.6108   22.8069 C   0  0  0  0  0  0  0  0  0  0  0  0
   23.9087   18.9024   22.0917 O   0  5  0  0  0  0  0  0  0  0  0  0
   23.6697   20.1946   23.7761 O   0  0  0  0  0  0  0  0  0  0  0  0
   21.7797   19.7868   22.5013 C   0  0  0  0  0  0  0  0  0  0  0  0
   21.2265   20.4326   23.1794 H   0  0  0  0  0  0  0  0  0  0  0  0
   21.1527   19.1978   21.4577 C   0  0  0  0  0  0  0  0  0  0  0  0
   21.6969   18.5472   20.7734 H   0  0  0  0  0  0  0  0  0  0  0  0
   19.6816   19.3806   21.1550 C   0  0  0  0  0  0  0  0  0  0  0  0
   19.5010   19.2019   20.0865 H   0  0  0  0  0  0  0  0  0  0  0  0
   19.3837   20.4193   21.3529 H   0  0  0  0  0  0  0  0  0  0  0  0
   18.8120   18.4212   21.9930 C   0  0  0  0  0  0  0  0  0  0  0  0
   19.1103   17.3828   21.7918 H   0  0  0  0  0  0  0  0  0  0  0  0
   18.9884   18.6015   23.0625 H   0  0  0  0  0  0  0  0  0  0  0  0
   17.3114   18.5949   21.6835 C   0  0  0  0  0  0  0  0  0  0  0  0
   17.1020   18.3891   20.6256 H   0  0  0  0  0  0  0  0  0  0  0  0
   16.7093   17.9046   22.2885 H   0  0  0  0  0  0  0  0  0  0  0  0
   16.9803   19.6177   21.9061 H   0  0  0  0  0  0  0  0  0  0  0  0
  1  2  1  0  0  0  0
  1  3  2  0  0  0  0
  1  4  1  0  0  0  0
  4  5  1  0  0  0  0
  4  6  2  0  0  0  0
  6  7  1  0  0  0  0
  6  8  1  0  0  0  0
  8  9  1  0  0  0  0
  8 10  1  0  0  0  0
  8 11  1  0  0  0  0
 11 12  1  0  0  0  0
 11 13  1  0  0  0  0
 11 14  1  0  0  0  0
 14 15  1  0  0  0  0
 14 16  1  0  0  0  0
 14 17  1  0  0  0  0
M  END
> <VConfSearch Rank>
478

> <Conf_Id>
1

> <Delta U+W>
0.030

> <U+W>
-53.378

> <U>
9.048

> <W>
-62.426

> <W(PB)>
-64.506

> <W(SA)>
2.080

> <Valence>
2.652

> <Coulomb>
5.578

> <VdW>
0.818

> <VdW6>
-4.535

> <VdW12>
5.352

> <Bond>
0.063

> <Angle>
2.579

> <Pdih>
0.010

> <Idih>
0.000

> <Tether>
0.000

$$$$
VeraChem MOL file


 17 16  0  0  0  0  0  0  0  0999 V2000     
   17.2841   17.8212   21.3951 C   0  0  0  0  0  0  0  0  0  0  0  0
   17.0961   18.2705   20.2801 O   0  5  0  0  0  0  0  0  0  0  0  0
   16.6528   16.8843   21.8440 O   0  0  0  0  0  0  0  0  0  0  0  0
   18.3242   18.4302   22.2677 C   0  0  0  0  0  0  0  0  0  0  0  0
   18.4404   17.9818   23.2516 H   0  0  0  0  0  0  0  0  0  0  0  0
   19.1006   19.4743   21.8986 C   0  0  0  0  0  0  0  0  0  0  0  0
   18.9949   19.9289   20.9139 H   0  0  0  0  0  0  0  0  0  0  0  0
   20.1600   20.0864   22.7908 C   0  0  0  0  0  0  0  0  0  0  0  0
   19.7840   20.1464   23.8212 H   0  0  0  0  0  0  0  0  0  0  0  0
   20.3599   21.1199   22.4772 H   0  0  0  0  0  0  0  0  0  0  0  0
   21.4767   19.2792   22.7786 C   0  0  0  0  0  0  0  0  0  0  0  0
   22.1669   19.7066   23.5190 H   0  0  0  0  0  0  0  0  0  0  0  0
   21.2801   18.2449   23.0931 H   0  0  0  0  0  0  0  0  0  0  0  0
   22.1585   19.2807   21.3937 C   0  0  0  0  0  0  0  0  0  0  0  0
   22.3762   20.3050   21.0643 H   0  0  0  0  0  0  0  0  0  0  0  0
   23.1060   18.7276   21.4294 H   0  0  0  0  0  0  0  0  0  0  0  0
   21.5201   18.8057   20.6374 H   0  0  0  0  0  0  0  0  0  0  0  0
  1  2  1  0  0  0  0
  1  3  2  0  0  0  0
  1  4  1  0  0  0  0
  4  5  1  0  0  0  0
  4  6  2  0  0  0  0
  6  7  1  0  0  0  0
  6  8  1  0  0  0  0
  8  9  1  0  0  0  0
  8 10  1  0  0  0  0
  8 11  1  0  0  0  0
 11 12  1  0  0  0  0
 11 13  1  0  0  0  0
 11 14  1  0  0  0  0
 14 15  1  0  0  0  0
 14 16  1  0  0  0  0
 14 17  1  0  0  0  0
M  END
> <VConfSearch Rank>
479

> <Conf_Id>
3

> <Delta U+W>
0.531

> <U+W>
-52.878

> <U>
10.067

> <W>
-62.945

> <W(PB)>
-64.982

> <W(SA)>
2.037

> <Valence>
2.779

> <Coulomb>
6.474

> <VdW>
0.815

> <VdW6>
-5.088

> <VdW12>
5.902

> <Bond>
0.078

> <Angle>
2.651

> <Pdih>
0.050

> <Idih>
0.000

> <Tether>
0.000

$$$$
VeraChem MOL file


 17 16  0  0  0  0  0  0  0  0999 V2000     
   19.0651   18.8894   19.2056 C   0  0  0  0  0  0  0  0  0  0  0  0
   18.3061   19.6036   18.5798 O   0  5  0  0  0  0  0  0  0  0  0  0
   19.3182   17.7458   18.8762 O   0  0  0  0  0  0  0  0  0  0  0  0
   19.7024   19.4626   20.4219 C   0  0  0  0  0  0  0  0  0  0  0  0
   19.4329   20.4891   20.6591 H   0  0  0  0  0  0  0  0  0  0  0  0
   20.5635   18.7827   21.2130 C   0  0  0  0  0  0  0  0  0  0  0  0
   20.8361   17.7526   20.9847 H   0  0  0  0  0  0  0  0  0  0  0  0
   21.2086   19.3680   22.4522 C   0  0  0  0  0  0  0  0  0  0  0  0
   21.1354   20.4640   22.4449 H   0  0  0  0  0  0  0  0  0  0  0  0
   22.2814   19.1337   22.4424 H   0  0  0  0  0  0  0  0  0  0  0  0
   20.5870   18.8151   23.7534 C   0  0  0  0  0  0  0  0  0  0  0  0
   20.6574   17.7185   23.7603 H   0  0  0  0  0  0  0  0  0  0  0  0
   21.1735   19.1725   24.6109 H   0  0  0  0  0  0  0  0  0  0  0  0
   19.1153   19.2431   23.9372 C   0  0  0  0  0  0  0  0  0  0  0  0
   18.4842   18.8485   23.1304 H   0  0  0  0  0  0  0  0  0  0  0  0
   18.7195   18.8657   24.8889 H   0  0  0  0  0  0  0  0  0  0  0  0
   19.0222   20.3369   23.9410 H   0  0  0  0  0  0  0  0  0  0  0  0
  1  2  1  0  0  0  0
  1  3  2  0  0  0  0
  1  4  1  0  0  0  0
  4  5  1  0  0  0  0
  4  6  2  0  0  0  0
  6  7  1  0  0  0  0
  6  8  1  0  0  0  0
  8  9  1  0  0  0  0
  8 10  1  0  0  0  0
  8 11  1  0  0  0  0
 11 12  1  0  0  0  0
 11 13  1  0  0  0  0
 11 14  1  0  0  0  0
 14 15  1  0  0  0  0
 14 16  1  0  0  0  0
 14 17  1  0  0  0  0
M  END
> <VConfSearch Rank>
480

> <Conf_Id>
45

> <Delta U+W>
0.562

> <U+W>
-52.846

> <U>
10.243

> <W>
-63.089

> <W(PB)>
-65.116

> <W(SA)>
2.026

> <Valence>
2.822

> <Coulomb>
6.637

> <VdW>
0.785

> <VdW6>
-5.216

> <VdW12>
6.001

> <Bond>
0.080

> <Angle>
2.678

> <Pdih>
0.064

> <Idih>
0.000

> <Tether>
0.000

$$$$
VeraChem MOL file


 17 16  0  0  0  0  0  0  0  0999 V2000     
   19.3218   17.4429   24.7635 C   0  0  0  0  0  0  0  0  0  0  0  0
   18.4442   16.6334   24.9917 O   0  5  0  0  0  0  0  0  0  0  0  0
   19.9902   17.9574   25.6403 O   0  0  0  0  0  0  0  0  0  0  0  0
   19.5720   17.8033   23.3416 C   0  0  0  0  0  0  0  0  0  0  0  0
   18.9402   17.3076   22.6081 H   0  0  0  0  0  0  0  0  0  0  0  0
   20.5138   18.6882   22.9428 C   0  0  0  0  0  0  0  0  0  0  0  0
   21.1507   19.1923   23.6694 H   0  0  0  0  0  0  0  0  0  0  0  0
   20.7603   19.0508   21.4947 C   0  0  0  0  0  0  0  0  0  0  0  0
   20.6594   18.1586   20.8617 H   0  0  0  0  0  0  0  0  0  0  0  0
   21.7935   19.4038   21.3747 H   0  0  0  0  0  0  0  0  0  0  0  0
   19.7827   20.1429   21.0146 C   0  0  0  0  0  0  0  0  0  0  0  0
   18.7485   19.7896   21.1301 H   0  0  0  0  0  0  0  0  0  0  0  0
   19.8869   21.0349   21.6479 H   0  0  0  0  0  0  0  0  0  0  0  0
   20.0336   20.5249   19.5420 C   0  0  0  0  0  0  0  0  0  0  0  0
   21.0518   20.9119   19.4044 H   0  0  0  0  0  0  0  0  0  0  0  0
   19.9050   19.6560   18.8833 H   0  0  0  0  0  0  0  0  0  0  0  0
   19.3292   21.3023   19.2187 H   0  0  0  0  0  0  0  0  0  0  0  0
  1  2  1  0  0  0  0
  1  3  2  0  0  0  0
  1  4  1  0  0  0  0
  4  5  1  0  0  0  0
  4  6  2  0  0  0  0
  6  7  1  0  0  0  0
  6  8  1  0  0  0  0
  8  9  1  0  0  0  0
  8 10  1  0  0  0  0
  8 11  1  0  0  0  0
 11 12  1  0  0  0  0
 11 13  1  0  0  0  0
 11 14  1  0  0  0  0
 14 15  1  0  0  0  0
 14 16  1  0  0  0  0
 14 17  1  0  0  0  0
M  END
> <VConfSearch Rank>
481

> <Conf_Id>
36

> <Delta U+W>
0.000

> <U+W>
-53.409

> <U>
9.048

> <W>
-62.457

> <W(PB)>
-64.540

> <W(SA)>
2.084

> <Valence>
2.652

> <Coulomb>
5.578

> <VdW>
0.818

> <VdW6>
-4.534

> <VdW12>
5.352

> <Bond>
0.063

> <Angle>
2.579

> <Pdih>
0.010

> <Idih>
0.000

> <Tether>
0.000

$$$$
VeraChem MOL file


 17 16  0  0  0  0  0  0  0  0999 V2000     
   17.9310   20.2825   24.2851 C   0  0  0  0  0  0  0  0  0  0  0  0
   18.6238   20.8393   25.1160 O   0  5  0  0  0  0  0  0  0  0  0  0
   16.7503   20.0507   24.4584 O   0  0  0  0  0  0  0  0  0  0  0  0
   18.5322   19.8585   22.9917 C   0  0  0  0  0  0  0  0  0  0  0  0
   17.8585   19.3668   22.2937 H   0  0  0  0  0  0  0  0  0  0  0  0
   19.8304   20.0508   22.6650 C   0  0  0  0  0  0  0  0  0  0  0  0
   20.5147   20.5404   23.3577 H   0  0  0  0  0  0  0  0  0  0  0  0
   20.4345   19.6148   21.3481 C   0  0  0  0  0  0  0  0  0  0  0  0
   21.3136   20.2339   21.1238 H   0  0  0  0  0  0  0  0  0  0  0  0
   19.7179   19.7824   20.5325 H   0  0  0  0  0  0  0  0  0  0  0  0
   20.8452   18.1285   21.3829 C   0  0  0  0  0  0  0  0  0  0  0  0
   21.5636   17.9639   22.1981 H   0  0  0  0  0  0  0  0  0  0  0  0
   19.9660   17.5074   21.6032 H   0  0  0  0  0  0  0  0  0  0  0  0
   21.4704   17.6787   20.0471 C   0  0  0  0  0  0  0  0  0  0  0  0
   22.3711   18.2633   19.8181 H   0  0  0  0  0  0  0  0  0  0  0  0
   21.7560   16.6196   20.0911 H   0  0  0  0  0  0  0  0  0  0  0  0
   20.7604   17.8041   19.2192 H   0  0  0  0  0  0  0  0  0  0  0  0
  1  2  1  0  0  0  0
  1  3  2  0  0  0  0
  1  4  1  0  0  0  0
  4  5  1  0  0  0  0
  4  6  2  0  0  0  0
  6  7  1  0  0  0  0
  6  8  1  0  0  0  0
  8  9  1  0  0  0  0
  8 10  1  0  0  0  0
  8 11  1  0  0  0  0
 11 12  1  0  0  0  0
 11 13  1  0  0  0  0
 11 14  1  0  0  0  0
 14 15  1  0  0  0  0
 14 16  1  0  0  0  0
 14 17  1  0  0  0  0
M  END
> <VConfSearch Rank>
482

> <Conf_Id>
1

> <Delta U+W>
0.030

> <U+W>
-53.378

> <U>
9.048

> <W>
-62.426

> <W(PB)>
-64.506

> <W(SA)>
2.080

> <Valence>
2.652

> <Coulomb>
5.578

> <VdW>
0.818

> <VdW6>
-4.535

> <VdW12>
5.352

> <Bond>
0.063

> <Angle>
2.579

> <Pdih>
0.010

> <Idih>
0.000

> <Tether>
0.000

$$$$
VeraChem MOL file


 17 16  0  0  0  0  0  0  0  0999 V2000     
   22.5617   17.3899   22.4236 C   0  0  0  0  0  0  0  0  0  0  0  0
   23.4027   18.1593   21.9979 O   0  5  0  0  0  0  0  0  0  0  0  0
   22.8394   16.4107   23.0884 O   0  0  0  0  0  0  0  0  0  0  0  0
   21.1241   17.6349   22.1282 C   0  0  0  0  0  0  0  0  0  0  0  0
   20.4250   16.9092   22.5374 H   0  0  0  0  0  0  0  0  0  0  0  0
   20.6716   18.6832   21.4035 C   0  0  0  0  0  0  0  0  0  0  0  0
   21.3630   19.4181   20.9916 H   0  0  0  0  0  0  0  0  0  0  0  0
   19.2064   18.9282   21.1101 C   0  0  0  0  0  0  0  0  0  0  0  0
   18.7124   17.9745   20.8800 H   0  0  0  0  0  0  0  0  0  0  0  0
   19.1051   19.5503   20.2106 H   0  0  0  0  0  0  0  0  0  0  0  0
   18.4758   19.6047   22.2908 C   0  0  0  0  0  0  0  0  0  0  0  0
   17.4021   19.6608   22.0642 H   0  0  0  0  0  0  0  0  0  0  0  0
   18.5743   18.9839   23.1921 H   0  0  0  0  0  0  0  0  0  0  0  0
   19.0056   21.0259   22.5780 C   0  0  0  0  0  0  0  0  0  0  0  0
   18.9053   21.6685   21.6936 H   0  0  0  0  0  0  0  0  0  0  0  0
   18.4429   21.4888   23.3990 H   0  0  0  0  0  0  0  0  0  0  0  0
   20.0644   21.0029   22.8669 H   0  0  0  0  0  0  0  0  0  0  0  0
  1  2  1  0  0  0  0
  1  3  2  0  0  0  0
  1  4  1  0  0  0  0
  4  5  1  0  0  0  0
  4  6  2  0  0  0  0
  6  7  1  0  0  0  0
  6  8  1  0  0  0  0
  8  9  1  0  0  0  0
  8 10  1  0  0  0  0
  8 11  1  0  0  0  0
 11 12  1  0  0  0  0
 11 13  1  0  0  0  0
 11 14  1  0  0  0  0
 14 15  1  0  0  0  0
 14 16  1  0  0  0  0
 14 17  1  0  0  0  0
M  END
> <VConfSearch Rank>
483

> <Conf_Id>
3

> <Delta U+W>
0.531

> <U+W>
-52.878

> <U>
10.067

> <W>
-62.945

> <W(PB)>
-64.982

> <W(SA)>
2.037

> <Valence>
2.779

> <Coulomb>
6.474

> <VdW>
0.815

> <VdW6>
-5.088

> <VdW12>
5.902

> <Bond>
0.078

> <Angle>
2.651

> <Pdih>
0.050

> <Idih>
0.000

> <Tether>
0.000

$$$$
VeraChem MOL file


 17 16  0  0  0  0  0  0  0  0999 V2000     
   22.3886   18.4741   20.3704 C   0  0  0  0  0  0  0  0  0  0  0  0
   23.5684   18.4840   20.6635 O   0  5  0  0  0  0  0  0  0  0  0  0
   21.9927   18.5519   19.2225 O   0  0  0  0  0  0  0  0  0  0  0  0
   21.4054   18.3577   21.4811 C   0  0  0  0  0  0  0  0  0  0  0  0
   21.8264   18.2921   22.4817 H   0  0  0  0  0  0  0  0  0  0  0  0
   20.0649   18.3365   21.3018 C   0  0  0  0  0  0  0  0  0  0  0  0
   19.6346   18.4055   20.3030 H   0  0  0  0  0  0  0  0  0  0  0  0
   19.0663   18.2207   22.4348 C   0  0  0  0  0  0  0  0  0  0  0  0
   19.5573   17.8545   23.3467 H   0  0  0  0  0  0  0  0  0  0  0  0
   18.3112   17.4681   22.1715 H   0  0  0  0  0  0  0  0  0  0  0  0
   18.3566   19.5603   22.7299 C   0  0  0  0  0  0  0  0  0  0  0  0
   17.8674   19.9287   21.8175 H   0  0  0  0  0  0  0  0  0  0  0  0
   17.5593   19.3889   23.4662 H   0  0  0  0  0  0  0  0  0  0  0  0
   19.3208   20.6360   23.2739 C   0  0  0  0  0  0  0  0  0  0  0  0
   20.0969   20.8814   22.5374 H   0  0  0  0  0  0  0  0  0  0  0  0
   18.7760   21.5596   23.5087 H   0  0  0  0  0  0  0  0  0  0  0  0
   19.8159   20.2916   24.1912 H   0  0  0  0  0  0  0  0  0  0  0  0
  1  2  1  0  0  0  0
  1  3  2  0  0  0  0
  1  4  1  0  0  0  0
  4  5  1  0  0  0  0
  4  6  2  0  0  0  0
  6  7  1  0  0  0  0
  6  8  1  0  0  0  0
  8  9  1  0  0  0  0
  8 10  1  0  0  0  0
  8 11  1  0  0  0  0
 11 12  1  0  0  0  0
 11 13  1  0  0  0  0
 11 14  1  0  0  0  0
 14 15  1  0  0  0  0
 14 16  1  0  0  0  0
 14 17  1  0  0  0  0
M  END
> <VConfSearch Rank>
484

> <Conf_Id>
45

> <Delta U+W>
0.562

> <U+W>
-52.846

> <U>
10.243

> <W>
-63.089

> <W(PB)>
-65.116

> <W(SA)>
2.026

> <Valence>
2.822

> <Coulomb>
6.637

> <VdW>
0.785

> <VdW6>
-5.216

> <VdW12>
6.001

> <Bond>
0.080

> <Angle>
2.678

> <Pdih>
0.064

> <Idih>
0.000

> <Tether>
0.000

$$$$
VeraChem MOL file


 17 16  0  0  0  0  0  0  0  0999 V2000     
   19.6509   17.2251   24.6846 C   0  0  0  0  0  0  0  0  0  0  0  0
   18.8619   16.3287   24.9115 O   0  5  0  0  0  0  0  0  0  0  0  0
   20.3278   17.7447   25.5520 O   0  0  0  0  0  0  0  0  0  0  0  0
   19.7779   17.6893   23.2766 C   0  0  0  0  0  0  0  0  0  0  0  0
   19.1450   17.1833   22.5511 H   0  0  0  0  0  0  0  0  0  0  0  0
   20.6133   18.6765   22.8808 C   0  0  0  0  0  0  0  0  0  0  0  0
   21.2501   19.1918   23.5997 H   0  0  0  0  0  0  0  0  0  0  0  0
   20.7348   19.1441   21.4470 C   0  0  0  0  0  0  0  0  0  0  0  0
   20.6701   18.2853   20.7651 H   0  0  0  0  0  0  0  0  0  0  0  0
   21.7243   19.5942   21.2895 H   0  0  0  0  0  0  0  0  0  0  0  0
   19.6389   20.1712   21.0961 C   0  0  0  0  0  0  0  0  0  0  0  0
   18.6482   19.7210   21.2491 H   0  0  0  0  0  0  0  0  0  0  0  0
   19.7070   21.0301   21.7781 H   0  0  0  0  0  0  0  0  0  0  0  0
   19.7616   20.6599   19.6389 C   0  0  0  0  0  0  0  0  0  0  0  0
   20.7322   21.1434   19.4669 H   0  0  0  0  0  0  0  0  0  0  0  0
   19.6656   19.8232   18.9345 H   0  0  0  0  0  0  0  0  0  0  0  0
   18.9741   21.3892   19.4080 H   0  0  0  0  0  0  0  0  0  0  0  0
  1  2  1  0  0  0  0
  1  3  2  0  0  0  0
  1  4  1  0  0  0  0
  4  5  1  0  0  0  0
  4  6  2  0  0  0  0
  6  7  1  0  0  0  0
  6  8  1  0  0  0  0
  8  9  1  0  0  0  0
  8 10  1  0  0  0  0
  8 11  1  0  0  0  0
 11 12  1  0  0  0  0
 11 13  1  0  0  0  0
 11 14  1  0  0  0  0
 14 15  1  0  0  0  0
 14 16  1  0  0  0  0
 14 17  1  0  0  0  0
M  END
> <VConfSearch Rank>
485

> <Conf_Id>
36

> <Delta U+W>
0.000

> <U+W>
-53.409

> <U>
9.048

> <W>
-62.457

> <W(PB)>
-64.540

> <W(SA)>
2.084

> <Valence>
2.652

> <Coulomb>
5.578

> <VdW>
0.818

> <VdW6>
-4.534

> <VdW12>
5.352

> <Bond>
0.063

> <Angle>
2.579

> <Pdih>
0.010

> <Idih>
0.000

> <Tether>
0.000

$$$$
VeraChem MOL file


 17 16  0  0  0  0  0  0  0  0999 V2000     
   20.7746   21.7776   20.0180 C   0  0  0  0  0  0  0  0  0  0  0  0
   21.5778   21.4041   19.1840 O   0  5  0  0  0  0  0  0  0  0  0  0
   20.5148   22.9503   20.2055 O   0  0  0  0  0  0  0  0  0  0  0  0
   20.0654   20.7737   20.8567 C   0  0  0  0  0  0  0  0  0  0  0  0
   19.3610   21.1740   21.5823 H   0  0  0  0  0  0  0  0  0  0  0  0
   20.2564   19.4385   20.7572 C   0  0  0  0  0  0  0  0  0  0  0  0
   20.9613   19.0268   20.0352 H   0  0  0  0  0  0  0  0  0  0  0  0
   19.5323   18.4243   21.6153 C   0  0  0  0  0  0  0  0  0  0  0  0
   19.4957   17.4592   21.0922 H   0  0  0  0  0  0  0  0  0  0  0  0
   18.4903   18.7369   21.7677 H   0  0  0  0  0  0  0  0  0  0  0  0
   20.2271   18.2453   22.9807 C   0  0  0  0  0  0  0  0  0  0  0  0
   21.2684   17.9305   22.8257 H   0  0  0  0  0  0  0  0  0  0  0  0
   20.2609   19.2092   23.5072 H   0  0  0  0  0  0  0  0  0  0  0  0
   19.5003   17.2061   23.8579 C   0  0  0  0  0  0  0  0  0  0  0  0
   19.4800   16.2237   23.3681 H   0  0  0  0  0  0  0  0  0  0  0  0
   20.0086   17.0924   24.8242 H   0  0  0  0  0  0  0  0  0  0  0  0
   18.4645   17.5130   24.0539 H   0  0  0  0  0  0  0  0  0  0  0  0
  1  2  1  0  0  0  0
  1  3  2  0  0  0  0
  1  4  1  0  0  0  0
  4  5  1  0  0  0  0
  4  6  2  0  0  0  0
  6  7  1  0  0  0  0
  6  8  1  0  0  0  0
  8  9  1  0  0  0  0
  8 10  1  0  0  0  0
  8 11  1  0  0  0  0
 11 12  1  0  0  0  0
 11 13  1  0  0  0  0
 11 14  1  0  0  0  0
 14 15  1  0  0  0  0
 14 16  1  0  0  0  0
 14 17  1  0  0  0  0
M  END
> <VConfSearch Rank>
486

> <Conf_Id>
1

> <Delta U+W>
0.030

> <U+W>
-53.378

> <U>
9.048

> <W>
-62.426

> <W(PB)>
-64.506

> <W(SA)>
2.080

> <Valence>
2.652

> <Coulomb>
5.578

> <VdW>
0.818

> <VdW6>
-4.535

> <VdW12>
5.352

> <Bond>
0.063

> <Angle>
2.579

> <Pdih>
0.010

> <Idih>
0.000

> <Tether>
0.000

$$$$
VeraChem MOL file


 17 16  0  0  0  0  0  0  0  0999 V2000     
   18.3791   18.3946   19.5328 C   0  0  0  0  0  0  0  0  0  0  0  0
   18.5069   17.1847   19.5147 O   0  5  0  0  0  0  0  0  0  0  0  0
   17.5357   18.9788   18.8807 O   0  0  0  0  0  0  0  0  0  0  0  0
   19.2850   19.2172   20.3794 C   0  0  0  0  0  0  0  0  0  0  0  0
   19.1178   20.2913   20.3490 H   0  0  0  0  0  0  0  0  0  0  0  0
   20.2653   18.7019   21.1557 C   0  0  0  0  0  0  0  0  0  0  0  0
   20.4393   17.6269   21.1962 H   0  0  0  0  0  0  0  0  0  0  0  0
   21.1810   19.5452   22.0179 C   0  0  0  0  0  0  0  0  0  0  0  0
   21.4696   20.4527   21.4705 H   0  0  0  0  0  0  0  0  0  0  0  0
   22.1126   18.9989   22.2177 H   0  0  0  0  0  0  0  0  0  0  0  0
   20.5219   19.9487   23.3552 C   0  0  0  0  0  0  0  0  0  0  0  0
   21.1869   20.6418   23.8886 H   0  0  0  0  0  0  0  0  0  0  0  0
   19.5900   20.4966   23.1585 H   0  0  0  0  0  0  0  0  0  0  0  0
   20.2291   18.7333   24.2606 C   0  0  0  0  0  0  0  0  0  0  0  0
   21.1495   18.1770   24.4811 H   0  0  0  0  0  0  0  0  0  0  0  0
   19.7930   19.0585   25.2140 H   0  0  0  0  0  0  0  0  0  0  0  0
   19.5189   18.0456   23.7832 H   0  0  0  0  0  0  0  0  0  0  0  0
  1  2  1  0  0  0  0
  1  3  2  0  0  0  0
  1  4  1  0  0  0  0
  4  5  1  0  0  0  0
  4  6  2  0  0  0  0
  6  7  1  0  0  0  0
  6  8  1  0  0  0  0
  8  9  1  0  0  0  0
  8 10  1  0  0  0  0
  8 11  1  0  0  0  0
 11 12  1  0  0  0  0
 11 13  1  0  0  0  0
 11 14  1  0  0  0  0
 14 15  1  0  0  0  0
 14 16  1  0  0  0  0
 14 17  1  0  0  0  0
M  END
> <VConfSearch Rank>
487

> <Conf_Id>
3

> <Delta U+W>
0.531

> <U+W>
-52.878

> <U>
10.067

> <W>
-62.945

> <W(PB)>
-64.982

> <W(SA)>
2.037

> <Valence>
2.779

> <Coulomb>
6.474

> <VdW>
0.815

> <VdW6>
-5.088

> <VdW12>
5.902

> <Bond>
0.078

> <Angle>
2.651

> <Pdih>
0.050

> <Idih>
0.000

> <Tether>
0.000

$$$$
VeraChem MOL file


 17 16  0  0  0  0  0  0  0  0999 V2000     
   18.7424   19.2514   24.8281 C   0  0  0  0  0  0  0  0  0  0  0  0
   17.6807   19.7308   25.1753 O   0  5  0  0  0  0  0  0  0  0  0  0
   19.6638   19.0592   25.5992 O   0  0  0  0  0  0  0  0  0  0  0  0
   18.8966   18.8890   23.3932 C   0  0  0  0  0  0  0  0  0  0  0  0
   18.0353   19.0868   22.7593 H   0  0  0  0  0  0  0  0  0  0  0  0
   20.0210   18.3505   22.8686 C   0  0  0  0  0  0  0  0  0  0  0  0
   20.8898   18.1524   23.4959 H   0  0  0  0  0  0  0  0  0  0  0  0
   20.1759   17.9852   21.4068 C   0  0  0  0  0  0  0  0  0  0  0  0
   19.1941   17.9231   20.9179 H   0  0  0  0  0  0  0  0  0  0  0  0
   20.6177   16.9825   21.3328 H   0  0  0  0  0  0  0  0  0  0  0  0
   21.0728   18.9851   20.6446 C   0  0  0  0  0  0  0  0  0  0  0  0
   22.0543   19.0498   21.1345 H   0  0  0  0  0  0  0  0  0  0  0  0
   21.2531   18.6036   19.6301 H   0  0  0  0  0  0  0  0  0  0  0  0
   20.4454   20.3922   20.5486 C   0  0  0  0  0  0  0  0  0  0  0  0
   20.3092   20.8339   21.5443 H   0  0  0  0  0  0  0  0  0  0  0  0
   21.0909   21.0639   19.9681 H   0  0  0  0  0  0  0  0  0  0  0  0
   19.4658   20.3523   20.0547 H   0  0  0  0  0  0  0  0  0  0  0  0
  1  2  1  0  0  0  0
  1  3  2  0  0  0  0
  1  4  1  0  0  0  0
  4  5  1  0  0  0  0
  4  6  2  0  0  0  0
  6  7  1  0  0  0  0
  6  8  1  0  0  0  0
  8  9  1  0  0  0  0
  8 10  1  0  0  0  0
  8 11  1  0  0  0  0
 11 12  1  0  0  0  0
 11 13  1  0  0  0  0
 11 14  1  0  0  0  0
 14 15  1  0  0  0  0
 14 16  1  0  0  0  0
 14 17  1  0  0  0  0
M  END
> <VConfSearch Rank>
488

> <Conf_Id>
45

> <Delta U+W>
0.562

> <U+W>
-52.846

> <U>
10.243

> <W>
-63.089

> <W(PB)>
-65.116

> <W(SA)>
2.026

> <Valence>
2.822

> <Coulomb>
6.637

> <VdW>
0.785

> <VdW6>
-5.216

> <VdW12>
6.001

> <Bond>
0.080

> <Angle>
2.678

> <Pdih>
0.064

> <Idih>
0.000

> <Tether>
0.000

$$$$
VeraChem MOL file


 17 16  0  0  0  0  0  0  0  0999 V2000     
   22.7860   19.1410   20.0221 C   0  0  0  0  0  0  0  0  0  0  0  0
   23.5643   20.0505   19.8104 O   0  5  0  0  0  0  0  0  0  0  0  0
   22.7816   18.1110   19.3744 O   0  0  0  0  0  0  0  0  0  0  0  0
   21.8063   19.3179   21.1280 C   0  0  0  0  0  0  0  0  0  0  0  0
   21.8640   20.2610   21.6668 H   0  0  0  0  0  0  0  0  0  0  0  0
   20.8838   18.3912   21.4732 C   0  0  0  0  0  0  0  0  0  0  0  0
   20.8157   17.4439   20.9385 H   0  0  0  0  0  0  0  0  0  0  0  0
   19.8895   18.5799   22.5979 C   0  0  0  0  0  0  0  0  0  0  0  0
   20.3685   19.0986   23.4395 H   0  0  0  0  0  0  0  0  0  0  0  0
   19.5711   17.5990   22.9758 H   0  0  0  0  0  0  0  0  0  0  0  0
   18.6555   19.3777   22.1291 C   0  0  0  0  0  0  0  0  0  0  0  0
   18.9719   20.3611   21.7545 H   0  0  0  0  0  0  0  0  0  0  0  0
   18.1770   18.8558   21.2886 H   0  0  0  0  0  0  0  0  0  0  0  0
   17.6327   19.5663   23.2674 C   0  0  0  0  0  0  0  0  0  0  0  0
   17.2755   18.5970   23.6393 H   0  0  0  0  0  0  0  0  0  0  0  0
   18.0778   20.1136   24.1087 H   0  0  0  0  0  0  0  0  0  0  0  0
   16.7626   20.1356   22.9152 H   0  0  0  0  0  0  0  0  0  0  0  0
  1  2  1  0  0  0  0
  1  3  2  0  0  0  0
  1  4  1  0  0  0  0
  4  5  1  0  0  0  0
  4  6  2  0  0  0  0
  6  7  1  0  0  0  0
  6  8  1  0  0  0  0
  8  9  1  0  0  0  0
  8 10  1  0  0  0  0
  8 11  1  0  0  0  0
 11 12  1  0  0  0  0
 11 13  1  0  0  0  0
 11 14  1  0  0  0  0
 14 15  1  0  0  0  0
 14 16  1  0  0  0  0
 14 17  1  0  0  0  0
M  END
> <VConfSearch Rank>
489

> <Conf_Id>
36

> <Delta U+W>
0.000

> <U+W>
-53.409

> <U>
9.048

> <W>
-62.457

> <W(PB)>
-64.540

> <W(SA)>
2.084

> <Valence>
2.652

> <Coulomb>
5.578

> <VdW>
0.818

> <VdW6>
-4.534

> <VdW12>
5.352

> <Bond>
0.063

> <Angle>
2.579

> <Pdih>
0.010

> <Idih>
0.000

> <Tether>
0.000

$$$$
VeraChem MOL file


 17 16  0  0  0  0  0  0  0  0999 V2000     
   19.3858   16.5466   19.7929 C   0  0  0  0  0  0  0  0  0  0  0  0
   19.4604   16.9996   18.6661 O   0  5  0  0  0  0  0  0  0  0  0  0
   18.9493   15.4373   20.0308 O   0  0  0  0  0  0  0  0  0  0  0  0
   19.8441   17.3671   20.9466 C   0  0  0  0  0  0  0  0  0  0  0  0
   19.7502   16.9033   21.9259 H   0  0  0  0  0  0  0  0  0  0  0  0
   20.3496   18.6160   20.8297 C   0  0  0  0  0  0  0  0  0  0  0  0
   20.4461   19.0911   19.8536 H   0  0  0  0  0  0  0  0  0  0  0  0
   20.8117   19.4445   22.0084 C   0  0  0  0  0  0  0  0  0  0  0  0
   21.5550   20.1799   21.6723 H   0  0  0  0  0  0  0  0  0  0  0  0
   21.3170   18.8030   22.7433 H   0  0  0  0  0  0  0  0  0  0  0  0
   19.6305   20.1745   22.6798 C   0  0  0  0  0  0  0  0  0  0  0  0
   19.1280   20.8170   21.9434 H   0  0  0  0  0  0  0  0  0  0  0  0
   18.8877   19.4397   23.0204 H   0  0  0  0  0  0  0  0  0  0  0  0
   20.0945   21.0286   23.8767 C   0  0  0  0  0  0  0  0  0  0  0  0
   20.8151   21.7932   23.5580 H   0  0  0  0  0  0  0  0  0  0  0  0
   19.2412   21.5398   24.3410 H   0  0  0  0  0  0  0  0  0  0  0  0
   20.5732   20.4043   24.6427 H   0  0  0  0  0  0  0  0  0  0  0  0
  1  2  1  0  0  0  0
  1  3  2  0  0  0  0
  1  4  1  0  0  0  0
  4  5  1  0  0  0  0
  4  6  2  0  0  0  0
  6  7  1  0  0  0  0
  6  8  1  0  0  0  0
  8  9  1  0  0  0  0
  8 10  1  0  0  0  0
  8 11  1  0  0  0  0
 11 12  1  0  0  0  0
 11 13  1  0  0  0  0
 11 14  1  0  0  0  0
 14 15  1  0  0  0  0
 14 16  1  0  0  0  0
 14 17  1  0  0  0  0
M  END
> <VConfSearch Rank>
490

> <Conf_Id>
1

> <Delta U+W>
0.030

> <U+W>
-53.378

> <U>
9.048

> <W>
-62.426

> <W(PB)>
-64.506

> <W(SA)>
2.080

> <Valence>
2.652

> <Coulomb>
5.578

> <VdW>
0.818

> <VdW6>
-4.535

> <VdW12>
5.352

> <Bond>
0.063

> <Angle>
2.579

> <Pdih>
0.010

> <Idih>
0.000

> <Tether>
0.000

$$$$
VeraChem MOL file


 17 16  0  0  0  0  0  0  0  0999 V2000     
   17.7109   17.1046   22.5513 C   0  0  0  0  0  0  0  0  0  0  0  0
   17.5151   17.2915   23.7375 O   0  5  0  0  0  0  0  0  0  0  0  0
   16.9173   16.5263   21.8346 O   0  0  0  0  0  0  0  0  0  0  0  0
   18.9709   17.5927   21.9281 C   0  0  0  0  0  0  0  0  0  0  0  0
   19.0834   17.3922   20.8651 H   0  0  0  0  0  0  0  0  0  0  0  0
   19.9397   18.2516   22.6035 C   0  0  0  0  0  0  0  0  0  0  0  0
   19.8358   18.4607   23.6680 H   0  0  0  0  0  0  0  0  0  0  0  0
   21.2179   18.7489   21.9616 C   0  0  0  0  0  0  0  0  0  0  0  0
   21.5931   17.9952   21.2561 H   0  0  0  0  0  0  0  0  0  0  0  0
   21.9975   18.8675   22.7261 H   0  0  0  0  0  0  0  0  0  0  0  0
   21.0189   20.0863   21.2151 C   0  0  0  0  0  0  0  0  0  0  0  0
   21.9460   20.3428   20.6843 H   0  0  0  0  0  0  0  0  0  0  0  0
   20.2402   19.9703   20.4485 H   0  0  0  0  0  0  0  0  0  0  0  0
   20.6448   21.2439   22.1652 C   0  0  0  0  0  0  0  0  0  0  0  0
   21.4161   21.3865   22.9332 H   0  0  0  0  0  0  0  0  0  0  0  0
   20.5442   22.1839   21.6072 H   0  0  0  0  0  0  0  0  0  0  0  0
   19.6898   21.0488   22.6704 H   0  0  0  0  0  0  0  0  0  0  0  0
  1  2  1  0  0  0  0
  1  3  2  0  0  0  0
  1  4  1  0  0  0  0
  4  5  1  0  0  0  0
  4  6  2  0  0  0  0
  6  7  1  0  0  0  0
  6  8  1  0  0  0  0
  8  9  1  0  0  0  0
  8 10  1  0  0  0  0
  8 11  1  0  0  0  0
 11 12  1  0  0  0  0
 11 13  1  0  0  0  0
 11 14  1  0  0  0  0
 14 15  1  0  0  0  0
 14 16  1  0  0  0  0
 14 17  1  0  0  0  0
M  END
> <VConfSearch Rank>
491

> <Conf_Id>
3

> <Delta U+W>
0.531

> <U+W>
-52.878

> <U>
10.067

> <W>
-62.945

> <W(PB)>
-64.982

> <W(SA)>
2.037

> <Valence>
2.779

> <Coulomb>
6.474

> <VdW>
0.815

> <VdW6>
-5.088

> <VdW12>
5.902

> <Bond>
0.078

> <Angle>
2.651

> <Pdih>
0.050

> <Idih>
0.000

> <Tether>
0.000

$$$$
VeraChem MOL file


 17 16  0  0  0  0  0  0  0  0999 V2000     
   21.7402   19.9924   19.7936 C   0  0  0  0  0  0  0  0  0  0  0  0
   22.4199   19.3292   19.0347 O   0  5  0  0  0  0  0  0  0  0  0  0
   21.9328   21.1780   19.9877 O   0  0  0  0  0  0  0  0  0  0  0  0
   20.6283   19.3024   20.5018 C   0  0  0  0  0  0  0  0  0  0  0  0
   20.5118   18.2435   20.2828 H   0  0  0  0  0  0  0  0  0  0  0  0
   19.7958   19.9146   21.3745 C   0  0  0  0  0  0  0  0  0  0  0  0
   19.9078   20.9743   21.6025 H   0  0  0  0  0  0  0  0  0  0  0  0
   18.6664   19.2088   22.0961 C   0  0  0  0  0  0  0  0  0  0  0  0
   18.4261   18.2580   21.6011 H   0  0  0  0  0  0  0  0  0  0  0  0
   17.7594   19.8245   22.0311 H   0  0  0  0  0  0  0  0  0  0  0  0
   18.9916   18.9516   23.5838 C   0  0  0  0  0  0  0  0  0  0  0  0
   19.2347   19.9019   24.0791 H   0  0  0  0  0  0  0  0  0  0  0  0
   18.0960   18.5574   24.0835 H   0  0  0  0  0  0  0  0  0  0  0  0
   20.1538   17.9536   23.7738 C   0  0  0  0  0  0  0  0  0  0  0  0
   21.0850   18.3431   23.3423 H   0  0  0  0  0  0  0  0  0  0  0  0
   20.3305   17.7654   24.8407 H   0  0  0  0  0  0  0  0  0  0  0  0
   19.9288   16.9929   23.2926 H   0  0  0  0  0  0  0  0  0  0  0  0
  1  2  1  0  0  0  0
  1  3  2  0  0  0  0
  1  4  1  0  0  0  0
  4  5  1  0  0  0  0
  4  6  2  0  0  0  0
  6  7  1  0  0  0  0
  6  8  1  0  0  0  0
  8  9  1  0  0  0  0
  8 10  1  0  0  0  0
  8 11  1  0  0  0  0
 11 12  1  0  0  0  0
 11 13  1  0  0  0  0
 11 14  1  0  0  0  0
 14 15  1  0  0  0  0
 14 16  1  0  0  0  0
 14 17  1  0  0  0  0
M  END
> <VConfSearch Rank>
492

> <Conf_Id>
45

> <Delta U+W>
0.562

> <U+W>
-52.846

> <U>
10.243

> <W>
-63.089

> <W(PB)>
-65.116

> <W(SA)>
2.026

> <Valence>
2.822

> <Coulomb>
6.637

> <VdW>
0.785

> <VdW6>
-5.216

> <VdW12>
6.001

> <Bond>
0.080

> <Angle>
2.678

> <Pdih>
0.064

> <Idih>
0.000

> <Tether>
0.000

$$$$
VeraChem MOL file


 17 16  0  0  0  0  0  0  0  0999 V2000     
   19.3317   22.1246   20.5354 C   0  0  0  0  0  0  0  0  0  0  0  0
   18.2645   22.6905   20.3991 O   0  5  0  0  0  0  0  0  0  0  0  0
   20.3469   22.4836   19.9690 O   0  0  0  0  0  0  0  0  0  0  0  0
   19.3734   20.9445   21.4408 C   0  0  0  0  0  0  0  0  0  0  0  0
   18.4321   20.6768   21.9153 H   0  0  0  0  0  0  0  0  0  0  0  0
   20.4895   20.2205   21.6845 C   0  0  0  0  0  0  0  0  0  0  0  0
   21.4374   20.4784   21.2125 H   0  0  0  0  0  0  0  0  0  0  0  0
   20.5229   19.0203   22.6051 C   0  0  0  0  0  0  0  0  0  0  0  0
   19.8818   19.1993   23.4790 H   0  0  0  0  0  0  0  0  0  0  0  0
   21.5423   18.8794   22.9889 H   0  0  0  0  0  0  0  0  0  0  0  0
   20.0643   17.7404   21.8766 C   0  0  0  0  0  0  0  0  0  0  0  0
   19.0428   17.8781   21.4956 H   0  0  0  0  0  0  0  0  0  0  0  0
   20.7082   17.5623   21.0041 H   0  0  0  0  0  0  0  0  0  0  0  0
   20.1045   16.5105   22.8057 C   0  0  0  0  0  0  0  0  0  0  0  0
   21.1223   16.3309   23.1762 H   0  0  0  0  0  0  0  0  0  0  0  0
   19.4441   16.6505   23.6716 H   0  0  0  0  0  0  0  0  0  0  0  0
   19.7751   15.6105   22.2704 H   0  0  0  0  0  0  0  0  0  0  0  0
  1  2  1  0  0  0  0
  1  3  2  0  0  0  0
  1  4  1  0  0  0  0
  4  5  1  0  0  0  0
  4  6  2  0  0  0  0
  6  7  1  0  0  0  0
  6  8  1  0  0  0  0
  8  9  1  0  0  0  0
  8 10  1  0  0  0  0
  8 11  1  0  0  0  0
 11 12  1  0  0  0  0
 11 13  1  0  0  0  0
 11 14  1  0  0  0  0
 14 15  1  0  0  0  0
 14 16  1  0  0  0  0
 14 17  1  0  0  0  0
M  END
> <VConfSearch Rank>
493

> <Conf_Id>
36

> <Delta U+W>
0.000

> <U+W>
-53.409

> <U>
9.048

> <W>
-62.457

> <W(PB)>
-64.540

> <W(SA)>
2.084

> <Valence>
2.652

> <Coulomb>
5.578

> <VdW>
0.818

> <VdW6>
-4.534

> <VdW12>
5.352

> <Bond>
0.063

> <Angle>
2.579

> <Pdih>
0.010

> <Idih>
0.000

> <Tether>
0.000

$$$$
VeraChem MOL file


 17 16  0  0  0  0  0  0  0  0999 V2000     
   21.0465   22.2320   21.2353 C   0  0  0  0  0  0  0  0  0  0  0  0
   20.3442   22.6468   20.3325 O   0  5  0  0  0  0  0  0  0  0  0  0
   22.0451   22.8122   21.6145 O   0  0  0  0  0  0  0  0  0  0  0  0
   20.6870   20.9617   21.9217 C   0  0  0  0  0  0  0  0  0  0  0  0
   21.3562   20.6474   22.7195 H   0  0  0  0  0  0  0  0  0  0  0  0
   19.6066   20.2128   21.6039 C   0  0  0  0  0  0  0  0  0  0  0  0
   18.9308   20.5172   20.8049 H   0  0  0  0  0  0  0  0  0  0  0  0
   19.2491   18.9209   22.3057 C   0  0  0  0  0  0  0  0  0  0  0  0
   18.1706   18.7367   22.2102 H   0  0  0  0  0  0  0  0  0  0  0  0
   19.4573   19.0076   23.3809 H   0  0  0  0  0  0  0  0  0  0  0  0
   20.0306   17.7276   21.7189 C   0  0  0  0  0  0  0  0  0  0  0  0
   19.8191   17.6417   20.6439 H   0  0  0  0  0  0  0  0  0  0  0  0
   21.1100   17.9086   21.8174 H   0  0  0  0  0  0  0  0  0  0  0  0
   19.6649   16.4054   22.4228 C   0  0  0  0  0  0  0  0  0  0  0  0
   18.5952   16.1841   22.3124 H   0  0  0  0  0  0  0  0  0  0  0  0
   20.2302   15.5688   21.9921 H   0  0  0  0  0  0  0  0  0  0  0  0
   19.8961   16.4543   23.4950 H   0  0  0  0  0  0  0  0  0  0  0  0
  1  2  1  0  0  0  0
  1  3  2  0  0  0  0
  1  4  1  0  0  0  0
  4  5  1  0  0  0  0
  4  6  2  0  0  0  0
  6  7  1  0  0  0  0
  6  8  1  0  0  0  0
  8  9  1  0  0  0  0
  8 10  1  0  0  0  0
  8 11  1  0  0  0  0
 11 12  1  0  0  0  0
 11 13  1  0  0  0  0
 11 14  1  0  0  0  0
 14 15  1  0  0  0  0
 14 16  1  0  0  0  0
 14 17  1  0  0  0  0
M  END
> <VConfSearch Rank>
494

> <Conf_Id>
1

> <Delta U+W>
0.030

> <U+W>
-53.378

> <U>
9.048

> <W>
-62.426

> <W(PB)>
-64.506

> <W(SA)>
2.080

> <Valence>
2.652

> <Coulomb>
5.578

> <VdW>
0.818

> <VdW6>
-4.535

> <VdW12>
5.352

> <Bond>
0.063

> <Angle>
2.579

> <Pdih>
0.010

> <Idih>
0.000

> <Tether>
0.000

$$$$
VeraChem MOL file


 17 16  0  0  0  0  0  0  0  0999 V2000     
   17.0072   19.6967   21.7798 C   0  0  0  0  0  0  0  0  0  0  0  0
   16.6471   19.5373   22.9310 O   0  5  0  0  0  0  0  0  0  0  0  0
   16.3275   20.2671   20.9488 O   0  0  0  0  0  0  0  0  0  0  0  0
   18.3318   19.1768   21.3449 C   0  0  0  0  0  0  0  0  0  0  0  0
   18.5920   19.3519   20.3035 H   0  0  0  0  0  0  0  0  0  0  0  0
   19.1906   18.5250   22.1614 C   0  0  0  0  0  0  0  0  0  0  0  0
   18.9416   18.3472   23.2073 H   0  0  0  0  0  0  0  0  0  0  0  0
   20.5390   18.0021   21.7126 C   0  0  0  0  0  0  0  0  0  0  0  0
   20.4484   17.5621   20.7102 H   0  0  0  0  0  0  0  0  0  0  0  0
   20.8631   17.1887   22.3757 H   0  0  0  0  0  0  0  0  0  0  0  0
   21.6182   19.1067   21.6849 C   0  0  0  0  0  0  0  0  0  0  0  0
   22.5416   18.6960   21.2538 H   0  0  0  0  0  0  0  0  0  0  0  0
   21.2973   19.9215   21.0211 H   0  0  0  0  0  0  0  0  0  0  0  0
   21.9240   19.6701   23.0891 C   0  0  0  0  0  0  0  0  0  0  0  0
   22.2591   18.8743   23.7670 H   0  0  0  0  0  0  0  0  0  0  0  0
   22.7171   20.4271   23.0368 H   0  0  0  0  0  0  0  0  0  0  0  0
   21.0359   20.1431   23.5282 H   0  0  0  0  0  0  0  0  0  0  0  0
  1  2  1  0  0  0  0
  1  3  2  0  0  0  0
  1  4  1  0  0  0  0
  4  5  1  0  0  0  0
  4  6  2  0  0  0  0
  6  7  1  0  0  0  0
  6  8  1  0  0  0  0
  8  9  1  0  0  0  0
  8 10  1  0  0  0  0
  8 11  1  0  0  0  0
 11 12  1  0  0  0  0
 11 13  1  0  0  0  0
 11 14  1  0  0  0  0
 14 15  1  0  0  0  0
 14 16  1  0  0  0  0
 14 17  1  0  0  0  0
M  END
> <VConfSearch Rank>
495

> <Conf_Id>
3

> <Delta U+W>
0.531

> <U+W>
-52.878

> <U>
10.067

> <W>
-62.945

> <W(PB)>
-64.982

> <W(SA)>
2.037

> <Valence>
2.779

> <Coulomb>
6.474

> <VdW>
0.815

> <VdW6>
-5.088

> <VdW12>
5.902

> <Bond>
0.078

> <Angle>
2.651

> <Pdih>
0.050

> <Idih>
0.000

> <Tether>
0.000

$$$$
VeraChem MOL file


 17 16  0  0  0  0  0  0  0  0999 V2000     
   19.9594   21.7126   23.5898 C   0  0  0  0  0  0  0  0  0  0  0  0
   20.4229   22.7920   23.2768 O   0  5  0  0  0  0  0  0  0  0  0  0
   19.7114   21.4094   24.7417 O   0  0  0  0  0  0  0  0  0  0  0  0
   19.6894   20.7380   22.4983 C   0  0  0  0  0  0  0  0  0  0  0  0
   19.9338   21.0728   21.4929 H   0  0  0  0  0  0  0  0  0  0  0  0
   19.1781   19.5022   22.7009 C   0  0  0  0  0  0  0  0  0  0  0  0
   18.9339   19.1575   23.7054 H   0  0  0  0  0  0  0  0  0  0  0  0
   18.9069   18.5112   21.5880 C   0  0  0  0  0  0  0  0  0  0  0  0
   18.8834   19.0201   20.6147 H   0  0  0  0  0  0  0  0  0  0  0  0
   17.9080   18.0775   21.7298 H   0  0  0  0  0  0  0  0  0  0  0  0
   19.9476   17.3707   21.5522 C   0  0  0  0  0  0  0  0  0  0  0  0
   19.9737   16.8628   22.5262 H   0  0  0  0  0  0  0  0  0  0  0  0
   19.6312   16.6198   20.8151 H   0  0  0  0  0  0  0  0  0  0  0  0
   21.3623   17.8688   21.1870 C   0  0  0  0  0  0  0  0  0  0  0  0
   21.7398   18.5749   21.9380 H   0  0  0  0  0  0  0  0  0  0  0  0
   22.0656   17.0278   21.1327 H   0  0  0  0  0  0  0  0  0  0  0  0
   21.3613   18.3736   20.2122 H   0  0  0  0  0  0  0  0  0  0  0  0
  1  2  1  0  0  0  0
  1  3  2  0  0  0  0
  1  4  1  0  0  0  0
  4  5  1  0  0  0  0
  4  6  2  0  0  0  0
  6  7  1  0  0  0  0
  6  8  1  0  0  0  0
  8  9  1  0  0  0  0
  8 10  1  0  0  0  0
  8 11  1  0  0  0  0
 11 12  1  0  0  0  0
 11 13  1  0  0  0  0
 11 14  1  0  0  0  0
 14 15  1  0  0  0  0
 14 16  1  0  0  0  0
 14 17  1  0  0  0  0
M  END
> <VConfSearch Rank>
496

> <Conf_Id>
45

> <Delta U+W>
0.562

> <U+W>
-52.846

> <U>
10.243

> <W>
-63.089

> <W(PB)>
-65.116

> <W(SA)>
2.026

> <Valence>
2.822

> <Coulomb>
6.637

> <VdW>
0.785

> <VdW6>
-5.216

> <VdW12>
6.001

> <Bond>
0.080

> <Angle>
2.678

> <Pdih>
0.064

> <Idih>
0.000

> <Tether>
0.000

$$$$
VeraChem MOL file


 17 16  0  0  0  0  0  0  0  0999 V2000     
   19.2667   19.4559   18.6369 C   0  0  0  0  0  0  0  0  0  0  0  0
   19.9723   19.2551   17.6677 O   0  5  0  0  0  0  0  0  0  0  0  0
   18.2059   20.0481   18.5705 O   0  0  0  0  0  0  0  0  0  0  0  0
   19.7417   18.9444   19.9510 C   0  0  0  0  0  0  0  0  0  0  0  0
   20.6970   18.4245   19.9407 H   0  0  0  0  0  0  0  0  0  0  0  0
   19.0612   19.0966   21.1098 C   0  0  0  0  0  0  0  0  0  0  0  0
   18.1044   19.6179   21.1319 H   0  0  0  0  0  0  0  0  0  0  0  0
   19.5524   18.5752   22.4425 C   0  0  0  0  0  0  0  0  0  0  0  0
   20.0344   17.5971   22.3085 H   0  0  0  0  0  0  0  0  0  0  0  0
   18.6969   18.4129   23.1119 H   0  0  0  0  0  0  0  0  0  0  0  0
   20.5430   19.5579   23.0998 C   0  0  0  0  0  0  0  0  0  0  0  0
   21.4017   19.7181   22.4331 H   0  0  0  0  0  0  0  0  0  0  0  0
   20.0580   20.5347   23.2346 H   0  0  0  0  0  0  0  0  0  0  0  0
   21.0412   19.0380   24.4633 C   0  0  0  0  0  0  0  0  0  0  0  0
   20.2046   18.8992   25.1605 H   0  0  0  0  0  0  0  0  0  0  0  0
   21.5580   18.0757   24.3517 H   0  0  0  0  0  0  0  0  0  0  0  0
   21.7443   19.7498   24.9151 H   0  0  0  0  0  0  0  0  0  0  0  0
  1  2  1  0  0  0  0
  1  3  2  0  0  0  0
  1  4  1  0  0  0  0
  4  5  1  0  0  0  0
  4  6  2  0  0  0  0
  6  7  1  0  0  0  0
  6  8  1  0  0  0  0
  8  9  1  0  0  0  0
  8 10  1  0  0  0  0
  8 11  1  0  0  0  0
 11 12  1  0  0  0  0
 11 13  1  0  0  0  0
 11 14  1  0  0  0  0
 14 15  1  0  0  0  0
 14 16  1  0  0  0  0
 14 17  1  0  0  0  0
M  END
> <VConfSearch Rank>
497

> <Conf_Id>
36

> <Delta U+W>
0.000

> <U+W>
-53.409

> <U>
9.048

> <W>
-62.457

> <W(PB)>
-64.540

> <W(SA)>
2.084

> <Valence>
2.652

> <Coulomb>
5.578

> <VdW>
0.818

> <VdW6>
-4.534

> <VdW12>
5.352

> <Bond>
0.063

> <Angle>
2.579

> <Pdih>
0.010

> <Idih>
0.000

> <Tether>
0.000

$$$$
VeraChem MOL file


 17 16  0  0  0  0  0  0  0  0999 V2000     
   18.2519   21.8629   22.6893 C   0  0  0  0  0  0  0  0  0  0  0  0
   19.0320   22.7962   22.6621 O   0  5  0  0  0  0  0  0  0  0  0  0
   17.1241   21.9579   23.1328 O   0  0  0  0  0  0  0  0  0  0  0  0
   18.6733   20.5372   22.1608 C   0  0  0  0  0  0  0  0  0  0  0  0
   17.9287   19.7463   22.2146 H   0  0  0  0  0  0  0  0  0  0  0  0
   19.8962   20.2876   21.6399 C   0  0  0  0  0  0  0  0  0  0  0  0
   20.6506   21.0722   21.5832 H   0  0  0  0  0  0  0  0  0  0  0  0
   20.3175   18.9359   21.1063 C   0  0  0  0  0  0  0  0  0  0  0  0
   21.1200   19.0659   20.3677 H   0  0  0  0  0  0  0  0  0  0  0  0
   19.4790   18.4633   20.5768 H   0  0  0  0  0  0  0  0  0  0  0  0
   20.8047   18.0110   22.2404 C   0  0  0  0  0  0  0  0  0  0  0  0
   21.6447   18.4850   22.7671 H   0  0  0  0  0  0  0  0  0  0  0  0
   20.0016   17.8766   22.9782 H   0  0  0  0  0  0  0  0  0  0  0  0
   21.2448   16.6342   21.7035 C   0  0  0  0  0  0  0  0  0  0  0  0
   22.0696   16.7374   20.9862 H   0  0  0  0  0  0  0  0  0  0  0  0
   21.5878   15.9907   22.5240 H   0  0  0  0  0  0  0  0  0  0  0  0
   20.4131   16.1253   21.1988 H   0  0  0  0  0  0  0  0  0  0  0  0
  1  2  1  0  0  0  0
  1  3  2  0  0  0  0
  1  4  1  0  0  0  0
  4  5  1  0  0  0  0
  4  6  2  0  0  0  0
  6  7  1  0  0  0  0
  6  8  1  0  0  0  0
  8  9  1  0  0  0  0
  8 10  1  0  0  0  0
  8 11  1  0  0  0  0
 11 12  1  0  0  0  0
 11 13  1  0  0  0  0
 11 14  1  0  0  0  0
 14 15  1  0  0  0  0
 14 16  1  0  0  0  0
 14 17  1  0  0  0  0
M  END
> <VConfSearch Rank>
498

> <Conf_Id>
1

> <Delta U+W>
0.030

> <U+W>
-53.378

> <U>
9.048

> <W>
-62.426

> <W(PB)>
-64.506

> <W(SA)>
2.080

> <Valence>
2.652

> <Coulomb>
5.578

> <VdW>
0.818

> <VdW6>
-4.535

> <VdW12>
5.352

> <Bond>
0.063

> <Angle>
2.579

> <Pdih>
0.010

> <Idih>
0.000

> <Tether>
0.000

$$$$
VeraChem MOL file


 17 16  0  0  0  0  0  0  0  0999 V2000     
   22.2457   20.4059   23.7218 C   0  0  0  0  0  0  0  0  0  0  0  0
   21.5777   21.0562   24.5037 O   0  5  0  0  0  0  0  0  0  0  0  0
   23.4262   20.1739   23.8964 O   0  0  0  0  0  0  0  0  0  0  0  0
   21.6136   19.8630   22.4890 C   0  0  0  0  0  0  0  0  0  0  0  0
   22.2664   19.2920   21.8328 H   0  0  0  0  0  0  0  0  0  0  0  0
   20.3121   20.0419   22.1679 C   0  0  0  0  0  0  0  0  0  0  0  0
   19.6484   20.6094   22.8199 H   0  0  0  0  0  0  0  0  0  0  0  0
   19.6748   19.4829   20.9132 C   0  0  0  0  0  0  0  0  0  0  0  0
   20.3669   19.5941   20.0676 H   0  0  0  0  0  0  0  0  0  0  0  0
   18.7813   20.0678   20.6564 H   0  0  0  0  0  0  0  0  0  0  0  0
   19.2920   17.9940   21.0617 C   0  0  0  0  0  0  0  0  0  0  0  0
   18.9344   17.6168   20.0937 H   0  0  0  0  0  0  0  0  0  0  0  0
   20.1843   17.4059   21.3174 H   0  0  0  0  0  0  0  0  0  0  0  0
   18.1977   17.7679   22.1266 C   0  0  0  0  0  0  0  0  0  0  0  0
   17.2907   18.3370   21.8845 H   0  0  0  0  0  0  0  0  0  0  0  0
   17.9267   16.7057   22.1820 H   0  0  0  0  0  0  0  0  0  0  0  0
   18.5426   18.0793   23.1212 H   0  0  0  0  0  0  0  0  0  0  0  0
  1  2  1  0  0  0  0
  1  3  2  0  0  0  0
  1  4  1  0  0  0  0
  4  5  1  0  0  0  0
  4  6  2  0  0  0  0
  6  7  1  0  0  0  0
  6  8  1  0  0  0  0
  8  9  1  0  0  0  0
  8 10  1  0  0  0  0
  8 11  1  0  0  0  0
 11 12  1  0  0  0  0
 11 13  1  0  0  0  0
 11 14  1  0  0  0  0
 14 15  1  0  0  0  0
 14 16  1  0  0  0  0
 14 17  1  0  0  0  0
M  END
> <VConfSearch Rank>
499

> <Conf_Id>
3

> <Delta U+W>
0.531

> <U+W>
-52.878

> <U>
10.067

> <W>
-62.945

> <W(PB)>
-64.982

> <W(SA)>
2.037

> <Valence>
2.779

> <Coulomb>
6.474

> <VdW>
0.815

> <VdW6>
-5.088

> <VdW12>
5.902

> <Bond>
0.078

> <Angle>
2.651

> <Pdih>
0.050

> <Idih>
0.000

> <Tether>
0.000

$$$$
VeraChem MOL file


 17 16  0  0  0  0  0  0  0  0999 V2000     
   22.3352   20.9414   21.6707 C   0  0  0  0  0  0  0  0  0  0  0  0
   23.3268   21.0929   22.3574 O   0  5  0  0  0  0  0  0  0  0  0  0
   21.9516   21.7749   20.8715 O   0  0  0  0  0  0  0  0  0  0  0  0
   21.5761   19.6715   21.8302 C   0  0  0  0  0  0  0  0  0  0  0  0
   21.9733   18.9707   22.5608 H   0  0  0  0  0  0  0  0  0  0  0  0
   20.4558   19.3708   21.1346 C   0  0  0  0  0  0  0  0  0  0  0  0
   20.0490   20.0689   20.4033 H   0  0  0  0  0  0  0  0  0  0  0  0
   19.6837   18.0783   21.3013 C   0  0  0  0  0  0  0  0  0  0  0  0
   20.3008   17.3217   21.8046 H   0  0  0  0  0  0  0  0  0  0  0  0
   19.4495   17.6703   20.3090 H   0  0  0  0  0  0  0  0  0  0  0  0
   18.3674   18.2787   22.0838 C   0  0  0  0  0  0  0  0  0  0  0  0
   17.7506   19.0374   21.5824 H   0  0  0  0  0  0  0  0  0  0  0  0
   17.7921   17.3428   22.0631 H   0  0  0  0  0  0  0  0  0  0  0  0
   18.6062   18.6898   23.5524 C   0  0  0  0  0  0  0  0  0  0  0  0
   19.1238   19.6559   23.6142 H   0  0  0  0  0  0  0  0  0  0  0  0
   17.6521   18.7847   24.0868 H   0  0  0  0  0  0  0  0  0  0  0  0
   19.2150   17.9410   24.0756 H   0  0  0  0  0  0  0  0  0  0  0  0
  1  2  1  0  0  0  0
  1  3  2  0  0  0  0
  1  4  1  0  0  0  0
  4  5  1  0  0  0  0
  4  6  2  0  0  0  0
  6  7  1  0  0  0  0
  6  8  1  0  0  0  0
  8  9  1  0  0  0  0
  8 10  1  0  0  0  0
  8 11  1  0  0  0  0
 11 12  1  0  0  0  0
 11 13  1  0  0  0  0
 11 14  1  0  0  0  0
 14 15  1  0  0  0  0
 14 16  1  0  0  0  0
 14 17  1  0  0  0  0
M  END
> <VConfSearch Rank>
500

> <Conf_Id>
45

> <Delta U+W>
0.562

> <U+W>
-52.846

> <U>
10.243

> <W>
-63.089

> <W(PB)>
-65.116

> <W(SA)>
2.026

> <Valence>
2.822

> <Coulomb>
6.637

> <VdW>
0.785

> <VdW6>
-5.216

> <VdW12>
6.001

> <Bond>
0.080

> <Angle>
2.678

> <Pdih>
0.064

> <Idih>
0.000

> <Tether>
0.000

$$$$
VeraChem MOL file


 17 16  0  0  0  0  0  0  0  0999 V2000     
   23.0001   18.0408   20.8289 C   0  0  0  0  0  0  0  0  0  0  0  0
   23.6033   17.0253   21.1166 O   0  5  0  0  0  0  0  0  0  0  0  0
   23.5173   18.9725   20.2418 O   0  0  0  0  0  0  0  0  0  0  0  0
   21.5672   18.1238   21.2213 C   0  0  0  0  0  0  0  0  0  0  0  0
   21.1670   17.2574   21.7429 H   0  0  0  0  0  0  0  0  0  0  0  0
   20.7768   19.1914   20.9672 C   0  0  0  0  0  0  0  0  0  0  0  0
   21.1681   20.0657   20.4474 H   0  0  0  0  0  0  0  0  0  0  0  0
   19.3209   19.2687   21.3717 C   0  0  0  0  0  0  0  0  0  0  0  0
   18.8412   18.2895   21.2374 H   0  0  0  0  0  0  0  0  0  0  0  0
   18.7922   19.9688   20.7108 H   0  0  0  0  0  0  0  0  0  0  0  0
   19.1682   19.7266   22.8366 C   0  0  0  0  0  0  0  0  0  0  0  0
   19.6931   19.0247   23.4996 H   0  0  0  0  0  0  0  0  0  0  0  0
   19.6468   20.7070   22.9679 H   0  0  0  0  0  0  0  0  0  0  0  0
   17.6865   19.8170   23.2539 C   0  0  0  0  0  0  0  0  0  0  0  0
   17.1448   20.5370   22.6264 H   0  0  0  0  0  0  0  0  0  0  0  0
   17.1921   18.8411   23.1612 H   0  0  0  0  0  0  0  0  0  0  0  0
   17.5981   20.1439   24.2981 H   0  0  0  0  0  0  0  0  0  0  0  0
  1  2  1  0  0  0  0
  1  3  2  0  0  0  0
  1  4  1  0  0  0  0
  4  5  1  0  0  0  0
  4  6  2  0  0  0  0
  6  7  1  0  0  0  0
  6  8  1  0  0  0  0
  8  9  1  0  0  0  0
  8 10  1  0  0  0  0
  8 11  1  0  0  0  0
 11 12  1  0  0  0  0
 11 13  1  0  0  0  0
 11 14  1  0  0  0  0
 14 15  1  0  0  0  0
 14 16  1  0  0  0  0
 14 17  1  0  0  0  0
M  END
> <VConfSearch Rank>
501

> <Conf_Id>
36

> <Delta U+W>
0.000

> <U+W>
-53.409

> <U>
9.048

> <W>
-62.457

> <W(PB)>
-64.540

> <W(SA)>
2.084

> <Valence>
2.652

> <Coulomb>
5.578

> <VdW>
0.818

> <VdW6>
-4.534

> <VdW12>
5.352

> <Bond>
0.063

> <Angle>
2.579

> <Pdih>
0.010

> <Idih>
0.000

> <Tether>
0.000

$$$$
VeraChem MOL file


 17 16  0  0  0  0  0  0  0  0999 V2000     
   18.1084   21.8432   21.4845 C   0  0  0  0  0  0  0  0  0  0  0  0
   16.9520   21.4675   21.4417 O   0  5  0  0  0  0  0  0  0  0  0  0
   18.4455   22.9759   21.1998 O   0  0  0  0  0  0  0  0  0  0  0  0
   19.1748   20.8930   21.9021 C   0  0  0  0  0  0  0  0  0  0  0  0
   20.1863   21.2924   21.9190 H   0  0  0  0  0  0  0  0  0  0  0  0
   18.9448   19.6051   22.2449 C   0  0  0  0  0  0  0  0  0  0  0  0
   17.9355   19.1941   22.2293 H   0  0  0  0  0  0  0  0  0  0  0  0
   20.0352   18.6448   22.6667 C   0  0  0  0  0  0  0  0  0  0  0  0
   19.6055   17.8535   23.2955 H   0  0  0  0  0  0  0  0  0  0  0  0
   20.7772   19.1675   23.2857 H   0  0  0  0  0  0  0  0  0  0  0  0
   20.7305   18.0119   21.4439 C   0  0  0  0  0  0  0  0  0  0  0  0
   19.9868   17.4880   20.8276 H   0  0  0  0  0  0  0  0  0  0  0  0
   21.1646   18.8022   20.8158 H   0  0  0  0  0  0  0  0  0  0  0  0
   21.8373   17.0247   21.8655 C   0  0  0  0  0  0  0  0  0  0  0  0
   21.4244   16.2058   22.4692 H   0  0  0  0  0  0  0  0  0  0  0  0
   22.3200   16.5849   20.9831 H   0  0  0  0  0  0  0  0  0  0  0  0
   22.6108   17.5311   22.4577 H   0  0  0  0  0  0  0  0  0  0  0  0
  1  2  1  0  0  0  0
  1  3  2  0  0  0  0
  1  4  1  0  0  0  0
  4  5  1  0  0  0  0
  4  6  2  0  0  0  0
  6  7  1  0  0  0  0
  6  8  1  0  0  0  0
  8  9  1  0  0  0  0
  8 10  1  0  0  0  0
  8 11  1  0  0  0  0
 11 12  1  0  0  0  0
 11 13  1  0  0  0  0
 11 14  1  0  0  0  0
 14 15  1  0  0  0  0
 14 16  1  0  0  0  0
 14 17  1  0  0  0  0
M  END
> <VConfSearch Rank>
502

> <Conf_Id>
1

> <Delta U+W>
0.030

> <U+W>
-53.378

> <U>
9.048

> <W>
-62.426

> <W(PB)>
-64.506

> <W(SA)>
2.080

> <Valence>
2.652

> <Coulomb>
5.578

> <VdW>
0.818

> <VdW6>
-4.535

> <VdW12>
5.352

> <Bond>
0.063

> <Angle>
2.579

> <Pdih>
0.010

> <Idih>
0.000

> <Tether>
0.000

$$$$
VeraChem MOL file


 17 16  0  0  0  0  0  0  0  0999 V2000     
   20.8055   19.6696   24.9726 C   0  0  0  0  0  0  0  0  0  0  0  0
   22.0120   19.7759   24.8567 O   0  5  0  0  0  0  0  0  0  0  0  0
   20.2009   20.0518   25.9555 O   0  0  0  0  0  0  0  0  0  0  0  0
   20.0139   19.0448   23.8785 C   0  0  0  0  0  0  0  0  0  0  0  0
   18.9413   18.9799   24.0460 H   0  0  0  0  0  0  0  0  0  0  0  0
   20.5536   18.5771   22.7300 C   0  0  0  0  0  0  0  0  0  0  0  0
   21.6266   18.6402   22.5504 H   0  0  0  0  0  0  0  0  0  0  0  0
   19.7410   17.9459   21.6191 C   0  0  0  0  0  0  0  0  0  0  0  0
   18.9685   17.2957   22.0516 H   0  0  0  0  0  0  0  0  0  0  0  0
   20.3833   17.2952   21.0106 H   0  0  0  0  0  0  0  0  0  0  0  0
   19.0667   18.9993   20.7128 C   0  0  0  0  0  0  0  0  0  0  0  0
   18.4101   18.4883   19.9952 H   0  0  0  0  0  0  0  0  0  0  0  0
   18.4222   19.6512   21.3187 H   0  0  0  0  0  0  0  0  0  0  0  0
   20.0910   19.8557   19.9382 C   0  0  0  0  0  0  0  0  0  0  0  0
   20.7387   19.2252   19.3151 H   0  0  0  0  0  0  0  0  0  0  0  0
   19.5783   20.5693   19.2803 H   0  0  0  0  0  0  0  0  0  0  0  0
   20.7280   20.4287   20.6246 H   0  0  0  0  0  0  0  0  0  0  0  0
  1  2  1  0  0  0  0
  1  3  2  0  0  0  0
  1  4  1  0  0  0  0
  4  5  1  0  0  0  0
  4  6  2  0  0  0  0
  6  7  1  0  0  0  0
  6  8  1  0  0  0  0
  8  9  1  0  0  0  0
  8 10  1  0  0  0  0
  8 11  1  0  0  0  0
 11 12  1  0  0  0  0
 11 13  1  0  0  0  0
 11 14  1  0  0  0  0
 14 15  1  0  0  0  0
 14 16  1  0  0  0  0
 14 17  1  0  0  0  0
M  END
> <VConfSearch Rank>
503

> <Conf_Id>
3

> <Delta U+W>
0.531

> <U+W>
-52.878

> <U>
10.067

> <W>
-62.945

> <W(PB)>
-64.982

> <W(SA)>
2.037

> <Valence>
2.779

> <Coulomb>
6.474

> <VdW>
0.815

> <VdW6>
-5.088

> <VdW12>
5.902

> <Bond>
0.078

> <Angle>
2.651

> <Pdih>
0.050

> <Idih>
0.000

> <Tether>
0.000

$$$$
VeraChem MOL file


 17 16  0  0  0  0  0  0  0  0999 V2000     
   20.6570   21.3492   23.9726 C   0  0  0  0  0  0  0  0  0  0  0  0
   21.7334   21.6739   24.4348 O   0  5  0  0  0  0  0  0  0  0  0  0
   19.5976   21.6660   24.4804 O   0  0  0  0  0  0  0  0  0  0  0  0
   20.6612   20.5316   22.7294 C   0  0  0  0  0  0  0  0  0  0  0  0
   21.6413   20.2840   22.3284 H   0  0  0  0  0  0  0  0  0  0  0  0
   19.5403   20.0987   22.1083 C   0  0  0  0  0  0  0  0  0  0  0  0
   18.5544   20.3392   22.5053 H   0  0  0  0  0  0  0  0  0  0  0  0
   19.5479   19.2642   20.8442 C   0  0  0  0  0  0  0  0  0  0  0  0
   20.5262   19.3232   20.3481 H   0  0  0  0  0  0  0  0  0  0  0  0
   18.8204   19.6812   20.1351 H   0  0  0  0  0  0  0  0  0  0  0  0
   19.1921   17.7860   21.1156 C   0  0  0  0  0  0  0  0  0  0  0  0
   18.2148   17.7262   21.6143 H   0  0  0  0  0  0  0  0  0  0  0  0
   19.0876   17.2605   20.1564 H   0  0  0  0  0  0  0  0  0  0  0  0
   20.2572   17.0660   21.9700 C   0  0  0  0  0  0  0  0  0  0  0  0
   20.3445   17.5247   22.9635 H   0  0  0  0  0  0  0  0  0  0  0  0
   19.9913   16.0102   22.1093 H   0  0  0  0  0  0  0  0  0  0  0  0
   21.2418   17.1068   21.4863 H   0  0  0  0  0  0  0  0  0  0  0  0
  1  2  1  0  0  0  0
  1  3  2  0  0  0  0
  1  4  1  0  0  0  0
  4  5  1  0  0  0  0
  4  6  2  0  0  0  0
  6  7  1  0  0  0  0
  6  8  1  0  0  0  0
  8  9  1  0  0  0  0
  8 10  1  0  0  0  0
  8 11  1  0  0  0  0
 11 12  1  0  0  0  0
 11 13  1  0  0  0  0
 11 14  1  0  0  0  0
 14 15  1  0  0  0  0
 14 16  1  0  0  0  0
 14 17  1  0  0  0  0
M  END
> <VConfSearch Rank>
504

> <Conf_Id>
45

> <Delta U+W>
0.562

> <U+W>
-52.846

> <U>
10.243

> <W>
-63.089

> <W(PB)>
-65.116

> <W(SA)>
2.026

> <Valence>
2.822

> <Coulomb>
6.637

> <VdW>
0.785

> <VdW6>
-5.216

> <VdW12>
6.001

> <Bond>
0.080

> <Angle>
2.678

> <Pdih>
0.064

> <Idih>
0.000

> <Tether>
0.000

$$$$
VeraChem MOL file


 17 16  0  0  0  0  0  0  0  0999 V2000     
   19.8034   15.7900   21.3958 C   0  0  0  0  0  0  0  0  0  0  0  0
   19.8346   14.8825   22.2041 O   0  5  0  0  0  0  0  0  0  0  0  0
   19.9235   15.6123   20.1981 O   0  0  0  0  0  0  0  0  0  0  0  0
   19.6074   17.1694   21.9181 C   0  0  0  0  0  0  0  0  0  0  0  0
   19.5070   17.2585   22.9974 H   0  0  0  0  0  0  0  0  0  0  0  0
   19.5540   18.2711   21.1355 C   0  0  0  0  0  0  0  0  0  0  0  0
   19.6558   18.1936   20.0531 H   0  0  0  0  0  0  0  0  0  0  0  0
   19.3564   19.6709   21.6748 C   0  0  0  0  0  0  0  0  0  0  0  0
   18.6413   19.6547   22.5086 H   0  0  0  0  0  0  0  0  0  0  0  0
   18.9138   20.3062   20.8958 H   0  0  0  0  0  0  0  0  0  0  0  0
   20.6907   20.2852   22.1454 C   0  0  0  0  0  0  0  0  0  0  0  0
   21.1329   19.6530   22.9278 H   0  0  0  0  0  0  0  0  0  0  0  0
   21.4036   20.3022   21.3093 H   0  0  0  0  0  0  0  0  0  0  0  0
   20.4994   21.7158   22.6879 C   0  0  0  0  0  0  0  0  0  0  0  0
   20.0875   22.3776   21.9147 H   0  0  0  0  0  0  0  0  0  0  0  0
   19.8139   21.7223   23.5456 H   0  0  0  0  0  0  0  0  0  0  0  0
   21.4585   22.1359   23.0176 H   0  0  0  0  0  0  0  0  0  0  0  0
  1  2  1  0  0  0  0
  1  3  2  0  0  0  0
  1  4  1  0  0  0  0
  4  5  1  0  0  0  0
  4  6  2  0  0  0  0
  6  7  1  0  0  0  0
  6  8  1  0  0  0  0
  8  9  1  0  0  0  0
  8 10  1  0  0  0  0
  8 11  1  0  0  0  0
 11 12  1  0  0  0  0
 11 13  1  0  0  0  0
 11 14  1  0  0  0  0
 14 15  1  0  0  0  0
 14 16  1  0  0  0  0
 14 17  1  0  0  0  0
M  END
> <VConfSearch Rank>
505

> <Conf_Id>
36

> <Delta U+W>
0.000

> <U+W>
-53.409

> <U>
9.048

> <W>
-62.457

> <W(PB)>
-64.540

> <W(SA)>
2.084

> <Valence>
2.652

> <Coulomb>
5.578

> <VdW>
0.818

> <VdW6>
-4.534

> <VdW12>
5.352

> <Bond>
0.063

> <Angle>
2.579

> <Pdih>
0.010

> <Idih>
0.000

> <Tether>
0.000

$$$$
VeraChem MOL file


 17 16  0  0  0  0  0  0  0  0999 V2000     
   19.3934   19.5415   18.6286 C   0  0  0  0  0  0  0  0  0  0  0  0
   19.5815   18.4695   18.0848 O   0  5  0  0  0  0  0  0  0  0  0  0
   19.2304   20.5755   18.0106 O   0  0  0  0  0  0  0  0  0  0  0  0
   19.3555   19.6152   20.1143 C   0  0  0  0  0  0  0  0  0  0  0  0
   19.1835   20.6028   20.5362 H   0  0  0  0  0  0  0  0  0  0  0  0
   19.5221   18.5467   20.9265 C   0  0  0  0  0  0  0  0  0  0  0  0
   19.6973   17.5531   20.5144 H   0  0  0  0  0  0  0  0  0  0  0  0
   19.4840   18.6307   22.4367 C   0  0  0  0  0  0  0  0  0  0  0  0
   19.2006   17.6543   22.8523 H   0  0  0  0  0  0  0  0  0  0  0  0
   18.7094   19.3421   22.7539 H   0  0  0  0  0  0  0  0  0  0  0  0
   20.8503   19.0588   23.0104 C   0  0  0  0  0  0  0  0  0  0  0  0
   21.6230   18.3446   22.6936 H   0  0  0  0  0  0  0  0  0  0  0  0
   21.1335   20.0375   22.5986 H   0  0  0  0  0  0  0  0  0  0  0  0
   20.8223   19.1378   24.5500 C   0  0  0  0  0  0  0  0  0  0  0  0
   20.5724   18.1630   24.9890 H   0  0  0  0  0  0  0  0  0  0  0  0
   21.8021   19.4435   24.9394 H   0  0  0  0  0  0  0  0  0  0  0  0
   20.0784   19.8690   24.8924 H   0  0  0  0  0  0  0  0  0  0  0  0
  1  2  1  0  0  0  0
  1  3  2  0  0  0  0
  1  4  1  0  0  0  0
  4  5  1  0  0  0  0
  4  6  2  0  0  0  0
  6  7  1  0  0  0  0
  6  8  1  0  0  0  0
  8  9  1  0  0  0  0
  8 10  1  0  0  0  0
  8 11  1  0  0  0  0
 11 12  1  0  0  0  0
 11 13  1  0  0  0  0
 11 14  1  0  0  0  0
 14 15  1  0  0  0  0
 14 16  1  0  0  0  0
 14 17  1  0  0  0  0
M  END
> <VConfSearch Rank>
506

> <Conf_Id>
1

> <Delta U+W>
0.030

> <U+W>
-53.378

> <U>
9.048

> <W>
-62.426

> <W(PB)>
-64.506

> <W(SA)>
2.080

> <Valence>
2.652

> <Coulomb>
5.578

> <VdW>
0.818

> <VdW6>
-4.535

> <VdW12>
5.352

> <Bond>
0.063

> <Angle>
2.579

> <Pdih>
0.010

> <Idih>
0.000

> <Tether>
0.000

$$$$
VeraChem MOL file


 17 16  0  0  0  0  0  0  0  0999 V2000     
   22.8176   18.7913   23.3019 C   0  0  0  0  0  0  0  0  0  0  0  0
   23.5150   18.9426   22.3164 O   0  5  0  0  0  0  0  0  0  0  0  0
   23.2529   18.8585   24.4350 O   0  0  0  0  0  0  0  0  0  0  0  0
   21.3661   18.5071   23.1391 C   0  0  0  0  0  0  0  0  0  0  0  0
   20.8007   18.3817   24.0596 H   0  0  0  0  0  0  0  0  0  0  0  0
   20.7477   18.4063   21.9405 C   0  0  0  0  0  0  0  0  0  0  0  0
   21.3040   18.5335   21.0121 H   0  0  0  0  0  0  0  0  0  0  0  0
   19.2691   18.1206   21.7827 C   0  0  0  0  0  0  0  0  0  0  0  0
   18.9604   17.3617   22.5143 H   0  0  0  0  0  0  0  0  0  0  0  0
   19.0767   17.6869   20.7921 H   0  0  0  0  0  0  0  0  0  0  0  0
   18.4029   19.3857   21.9694 C   0  0  0  0  0  0  0  0  0  0  0  0
   17.3420   19.1008   21.9494 H   0  0  0  0  0  0  0  0  0  0  0  0
   18.5923   19.8213   22.9603 H   0  0  0  0  0  0  0  0  0  0  0  0
   18.6613   20.4458   20.8775 C   0  0  0  0  0  0  0  0  0  0  0  0
   18.4659   20.0358   19.8781 H   0  0  0  0  0  0  0  0  0  0  0  0
   18.0066   21.3152   21.0212 H   0  0  0  0  0  0  0  0  0  0  0  0
   19.7004   20.7989   20.9062 H   0  0  0  0  0  0  0  0  0  0  0  0
  1  2  1  0  0  0  0
  1  3  2  0  0  0  0
  1  4  1  0  0  0  0
  4  5  1  0  0  0  0
  4  6  2  0  0  0  0
  6  7  1  0  0  0  0
  6  8  1  0  0  0  0
  8  9  1  0  0  0  0
  8 10  1  0  0  0  0
  8 11  1  0  0  0  0
 11 12  1  0  0  0  0
 11 13  1  0  0  0  0
 11 14  1  0  0  0  0
 14 15  1  0  0  0  0
 14 16  1  0  0  0  0
 14 17  1  0  0  0  0
M  END
> <VConfSearch Rank>
507

> <Conf_Id>
3

> <Delta U+W>
0.531

> <U+W>
-52.878

> <U>
10.067

> <W>
-62.945

> <W(PB)>
-64.982

> <W(SA)>
2.037

> <Valence>
2.779

> <Coulomb>
6.474

> <VdW>
0.815

> <VdW6>
-5.088

> <VdW12>
5.902

> <Bond>
0.078

> <Angle>
2.651

> <Pdih>
0.050

> <Idih>
0.000

> <Tether>
0.000

$$$$
VeraChem MOL file


 17 16  0  0  0  0  0  0  0  0999 V2000     
   17.4803   17.4166   22.3064 C   0  0  0  0  0  0  0  0  0  0  0  0
   16.9603   16.6862   21.4854 O   0  5  0  0  0  0  0  0  0  0  0  0
   16.8777   17.8733   23.2596 O   0  0  0  0  0  0  0  0  0  0  0  0
   18.9182   17.7495   22.1172 C   0  0  0  0  0  0  0  0  0  0  0  0
   19.3961   17.3083   21.2456 H   0  0  0  0  0  0  0  0  0  0  0  0
   19.6222   18.5501   22.9497 C   0  0  0  0  0  0  0  0  0  0  0  0
   19.1502   18.9991   23.8233 H   0  0  0  0  0  0  0  0  0  0  0  0
   21.0853   18.8893   22.7530 C   0  0  0  0  0  0  0  0  0  0  0  0
   21.5563   18.1804   22.0586 H   0  0  0  0  0  0  0  0  0  0  0  0
   21.6116   18.7746   23.7100 H   0  0  0  0  0  0  0  0  0  0  0  0
   21.2886   20.3316   22.2393 C   0  0  0  0  0  0  0  0  0  0  0  0
   20.8153   21.0412   22.9321 H   0  0  0  0  0  0  0  0  0  0  0  0
   22.3625   20.5634   22.2378 H   0  0  0  0  0  0  0  0  0  0  0  0
   20.7270   20.5401   20.8167 C   0  0  0  0  0  0  0  0  0  0  0  0
   19.6413   20.3797   20.7919 H   0  0  0  0  0  0  0  0  0  0  0  0
   20.9237   21.5628   20.4700 H   0  0  0  0  0  0  0  0  0  0  0  0
   21.1922   19.8454   20.1053 H   0  0  0  0  0  0  0  0  0  0  0  0
  1  2  1  0  0  0  0
  1  3  2  0  0  0  0
  1  4  1  0  0  0  0
  4  5  1  0  0  0  0
  4  6  2  0  0  0  0
  6  7  1  0  0  0  0
  6  8  1  0  0  0  0
  8  9  1  0  0  0  0
  8 10  1  0  0  0  0
  8 11  1  0  0  0  0
 11 12  1  0  0  0  0
 11 13  1  0  0  0  0
 11 14  1  0  0  0  0
 14 15  1  0  0  0  0
 14 16  1  0  0  0  0
 14 17  1  0  0  0  0
M  END
> <VConfSearch Rank>
508

> <Conf_Id>
45

> <Delta U+W>
0.562

> <U+W>
-52.846

> <U>
10.243

> <W>
-63.089

> <W(PB)>
-65.116

> <W(SA)>
2.026

> <Valence>
2.822

> <Coulomb>
6.637

> <VdW>
0.785

> <VdW6>
-5.216

> <VdW12>
6.001

> <Bond>
0.080

> <Angle>
2.678

> <Pdih>
0.064

> <Idih>
0.000

> <Tether>
0.000

$$$$
VeraChem MOL file


 17 16  0  0  0  0  0  0  0  0999 V2000     
   22.5621   20.3154   20.0849 C   0  0  0  0  0  0  0  0  0  0  0  0
   23.7373   20.4127   20.3802 O   0  5  0  0  0  0  0  0  0  0  0  0
   22.0772   20.8656   19.1141 O   0  0  0  0  0  0  0  0  0  0  0  0
   21.6992   19.4802   20.9635 C   0  0  0  0  0  0  0  0  0  0  0  0
   22.1949   19.0167   21.8135 H   0  0  0  0  0  0  0  0  0  0  0  0
   20.3771   19.2851   20.7561 C   0  0  0  0  0  0  0  0  0  0  0  0
   19.8700   19.7466   19.9090 H   0  0  0  0  0  0  0  0  0  0  0  0
   19.5062   18.4359   21.6559 C   0  0  0  0  0  0  0  0  0  0  0  0
   20.0627   17.5495   21.9895 H   0  0  0  0  0  0  0  0  0  0  0  0
   18.6413   18.0665   21.0885 H   0  0  0  0  0  0  0  0  0  0  0  0
   19.0167   19.2348   22.8811 C   0  0  0  0  0  0  0  0  0  0  0  0
   19.8809   19.6016   23.4522 H   0  0  0  0  0  0  0  0  0  0  0  0
   18.4586   20.1198   22.5449 H   0  0  0  0  0  0  0  0  0  0  0  0
   18.1204   18.3789   23.7985 C   0  0  0  0  0  0  0  0  0  0  0  0
   17.2313   18.0252   23.2603 H   0  0  0  0  0  0  0  0  0  0  0  0
   18.6654   17.5027   24.1737 H   0  0  0  0  0  0  0  0  0  0  0  0
   17.7823   18.9637   24.6638 H   0  0  0  0  0  0  0  0  0  0  0  0
  1  2  1  0  0  0  0
  1  3  2  0  0  0  0
  1  4  1  0  0  0  0
  4  5  1  0  0  0  0
  4  6  2  0  0  0  0
  6  7  1  0  0  0  0
  6  8  1  0  0  0  0
  8  9  1  0  0  0  0
  8 10  1  0  0  0  0
  8 11  1  0  0  0  0
 11 12  1  0  0  0  0
 11 13  1  0  0  0  0
 11 14  1  0  0  0  0
 14 15  1  0  0  0  0
 14 16  1  0  0  0  0
 14 17  1  0  0  0  0
M  END
> <VConfSearch Rank>
509

> <Conf_Id>
36

> <Delta U+W>
0.000

> <U+W>
-53.409

> <U>
9.048

> <W>
-62.457

> <W(PB)>
-64.540

> <W(SA)>
2.084

> <Valence>
2.652

> <Coulomb>
5.578

> <VdW>
0.818

> <VdW6>
-4.534

> <VdW12>
5.352

> <Bond>
0.063

> <Angle>
2.579

> <Pdih>
0.010

> <Idih>
0.000

> <Tether>
0.000

$$$$
VeraChem MOL file


 17 16  0  0  0  0  0  0  0  0999 V2000     
   19.1017   21.2891   24.3059 C   0  0  0  0  0  0  0  0  0  0  0  0
   18.5053   22.1910   23.7478 O   0  5  0  0  0  0  0  0  0  0  0  0
   19.4512   21.3494   25.4687 O   0  0  0  0  0  0  0  0  0  0  0  0
   19.4274   20.0474   23.5535 C   0  0  0  0  0  0  0  0  0  0  0  0
   19.9611   19.2810   24.1109 H   0  0  0  0  0  0  0  0  0  0  0  0
   19.1012   19.8444   22.2568 C   0  0  0  0  0  0  0  0  0  0  0  0
   18.5685   20.6065   21.6883 H   0  0  0  0  0  0  0  0  0  0  0  0
   19.4380   18.5793   21.4983 C   0  0  0  0  0  0  0  0  0  0  0  0
   18.7307   18.4488   20.6682 H   0  0  0  0  0  0  0  0  0  0  0  0
   19.3164   17.7054   22.1528 H   0  0  0  0  0  0  0  0  0  0  0  0
   20.8781   18.6207   20.9475 C   0  0  0  0  0  0  0  0  0  0  0  0
   20.9966   19.4943   20.2916 H   0  0  0  0  0  0  0  0  0  0  0  0
   21.5874   18.7472   21.7773 H   0  0  0  0  0  0  0  0  0  0  0  0
   21.2261   17.3385   20.1651 C   0  0  0  0  0  0  0  0  0  0  0  0
   20.5508   17.2045   19.3098 H   0  0  0  0  0  0  0  0  0  0  0  0
   22.2535   17.3864   19.7813 H   0  0  0  0  0  0  0  0  0  0  0  0
   21.1454   16.4520   20.8079 H   0  0  0  0  0  0  0  0  0  0  0  0
  1  2  1  0  0  0  0
  1  3  2  0  0  0  0
  1  4  1  0  0  0  0
  4  5  1  0  0  0  0
  4  6  2  0  0  0  0
  6  7  1  0  0  0  0
  6  8  1  0  0  0  0
  8  9  1  0  0  0  0
  8 10  1  0  0  0  0
  8 11  1  0  0  0  0
 11 12  1  0  0  0  0
 11 13  1  0  0  0  0
 11 14  1  0  0  0  0
 14 15  1  0  0  0  0
 14 16  1  0  0  0  0
 14 17  1  0  0  0  0
M  END
> <VConfSearch Rank>
510

> <Conf_Id>
1

> <Delta U+W>
0.030

> <U+W>
-53.378

> <U>
9.048

> <W>
-62.426

> <W(PB)>
-64.506

> <W(SA)>
2.080

> <Valence>
2.652

> <Coulomb>
5.578

> <VdW>
0.818

> <VdW6>
-4.535

> <VdW12>
5.352

> <Bond>
0.063

> <Angle>
2.579

> <Pdih>
0.010

> <Idih>
0.000

> <Tether>
0.000

$$$$
VeraChem MOL file


 17 16  0  0  0  0  0  0  0  0999 V2000     
   18.0608   18.3751   19.7772 C   0  0  0  0  0  0  0  0  0  0  0  0
   16.9976   18.5034   20.3548 O   0  5  0  0  0  0  0  0  0  0  0  0
   18.1511   18.3168   18.5663 O   0  0  0  0  0  0  0  0  0  0  0  0
   19.3191   18.2798   20.5656 C   0  0  0  0  0  0  0  0  0  0  0  0
   20.2336   18.1653   19.9882 H   0  0  0  0  0  0  0  0  0  0  0  0
   19.3680   18.3311   21.9162 C   0  0  0  0  0  0  0  0  0  0  0  0
   18.4582   18.4490   22.5044 H   0  0  0  0  0  0  0  0  0  0  0  0
   20.6531   18.2373   22.7117 C   0  0  0  0  0  0  0  0  0  0  0  0
   21.3076   17.4763   22.2656 H   0  0  0  0  0  0  0  0  0  0  0  0
   20.4357   17.8941   23.7321 H   0  0  0  0  0  0  0  0  0  0  0  0
   21.4080   19.5835   22.7695 C   0  0  0  0  0  0  0  0  0  0  0  0
   22.3767   19.4310   23.2650 H   0  0  0  0  0  0  0  0  0  0  0  0
   21.6281   19.9289   21.7499 H   0  0  0  0  0  0  0  0  0  0  0  0
   20.6191   20.6719   23.5282 C   0  0  0  0  0  0  0  0  0  0  0  0
   20.3987   20.3531   24.5553 H   0  0  0  0  0  0  0  0  0  0  0  0
   21.1980   21.6032   23.5792 H   0  0  0  0  0  0  0  0  0  0  0  0
   19.6682   20.8940   23.0266 H   0  0  0  0  0  0  0  0  0  0  0  0
  1  2  1  0  0  0  0
  1  3  2  0  0  0  0
  1  4  1  0  0  0  0
  4  5  1  0  0  0  0
  4  6  2  0  0  0  0
  6  7  1  0  0  0  0
  6  8  1  0  0  0  0
  8  9  1  0  0  0  0
  8 10  1  0  0  0  0
  8 11  1  0  0  0  0
 11 12  1  0  0  0  0
 11 13  1  0  0  0  0
 11 14  1  0  0  0  0
 14 15  1  0  0  0  0
 14 16  1  0  0  0  0
 14 17  1  0  0  0  0
M  END
> <VConfSearch Rank>
511

> <Conf_Id>
3

> <Delta U+W>
0.531

> <U+W>
-52.878

> <U>
10.067

> <W>
-62.945

> <W(PB)>
-64.982

> <W(SA)>
2.037

> <Valence>
2.779

> <Coulomb>
6.474

> <VdW>
0.815

> <VdW6>
-5.088

> <VdW12>
5.902

> <Bond>
0.078

> <Angle>
2.651

> <Pdih>
0.050

> <Idih>
0.000

> <Tether>
0.000

$$$$
VeraChem MOL file


 17 16  0  0  0  0  0  0  0  0999 V2000     
   20.4780   20.0742   24.8903 C   0  0  0  0  0  0  0  0  0  0  0  0
   21.2861   19.6869   25.7118 O   0  5  0  0  0  0  0  0  0  0  0  0
   19.4785   20.6995   25.1912 O   0  0  0  0  0  0  0  0  0  0  0  0
   20.7466   19.7602   23.4609 C   0  0  0  0  0  0  0  0  0  0  0  0
   21.6567   19.1990   23.2619 H   0  0  0  0  0  0  0  0  0  0  0  0
   19.9340   20.1260   22.4434 C   0  0  0  0  0  0  0  0  0  0  0  0
   19.0183   20.6852   22.6343 H   0  0  0  0  0  0  0  0  0  0  0  0
   20.2087   19.8025   20.9894 C   0  0  0  0  0  0  0  0  0  0  0  0
   21.2617   19.5232   20.8480 H   0  0  0  0  0  0  0  0  0  0  0  0
   20.0486   20.7053   20.3849 H   0  0  0  0  0  0  0  0  0  0  0  0
   19.2969   18.6753   20.4573 C   0  0  0  0  0  0  0  0  0  0  0  0
   18.2434   18.9528   20.6008 H   0  0  0  0  0  0  0  0  0  0  0  0
   19.4495   18.5721   19.3741 H   0  0  0  0  0  0  0  0  0  0  0  0
   19.5742   17.3169   21.1358 C   0  0  0  0  0  0  0  0  0  0  0  0
   19.3699   17.3633   22.2134 H   0  0  0  0  0  0  0  0  0  0  0  0
   18.9367   16.5334   20.7061 H   0  0  0  0  0  0  0  0  0  0  0  0
   20.6209   17.0158   20.9983 H   0  0  0  0  0  0  0  0  0  0  0  0
  1  2  1  0  0  0  0
  1  3  2  0  0  0  0
  1  4  1  0  0  0  0
  4  5  1  0  0  0  0
  4  6  2  0  0  0  0
  6  7  1  0  0  0  0
  6  8  1  0  0  0  0
  8  9  1  0  0  0  0
  8 10  1  0  0  0  0
  8 11  1  0  0  0  0
 11 12  1  0  0  0  0
 11 13  1  0  0  0  0
 11 14  1  0  0  0  0
 14 15  1  0  0  0  0
 14 16  1  0  0  0  0
 14 17  1  0  0  0  0
M  END
> <VConfSearch Rank>
512

> <Conf_Id>
45

> <Delta U+W>
0.562

> <U+W>
-52.846

> <U>
10.243

> <W>
-63.089

> <W(PB)>
-65.116

> <W(SA)>
2.026

> <Valence>
2.822

> <Coulomb>
6.637

> <VdW>
0.785

> <VdW6>
-5.216

> <VdW12>
6.001

> <Bond>
0.080

> <Angle>
2.678

> <Pdih>
0.064

> <Idih>
0.000

> <Tether>
0.000

$$$$
VeraChem MOL file


 17 16  0  0  0  0  0  0  0  0999 V2000     
   17.7191   20.4992   23.9868 C   0  0  0  0  0  0  0  0  0  0  0  0
   17.8528   21.4149   24.7750 O   0  5  0  0  0  0  0  0  0  0  0  0
   16.7494   19.7643   23.9861 O   0  0  0  0  0  0  0  0  0  0  0  0
   18.8015   20.2885   22.9877 C   0  0  0  0  0  0  0  0  0  0  0  0
   19.6394   20.9798   23.0428 H   0  0  0  0  0  0  0  0  0  0  0  0
   18.7856   19.3101   22.0541 C   0  0  0  0  0  0  0  0  0  0  0  0
   17.9522   18.6106   21.9915 H   0  0  0  0  0  0  0  0  0  0  0  0
   19.8916   19.1014   21.0430 C   0  0  0  0  0  0  0  0  0  0  0  0
   20.2716   20.0720   20.6963 H   0  0  0  0  0  0  0  0  0  0  0  0
   19.4895   18.5892   20.1585 H   0  0  0  0  0  0  0  0  0  0  0  0
   21.0480   18.2722   21.6382 C   0  0  0  0  0  0  0  0  0  0  0  0
   21.4543   18.7853   22.5209 H   0  0  0  0  0  0  0  0  0  0  0  0
   20.6659   17.3011   21.9824 H   0  0  0  0  0  0  0  0  0  0  0  0
   22.1754   18.0469   20.6107 C   0  0  0  0  0  0  0  0  0  0  0  0
   21.8027   17.5066   19.7305 H   0  0  0  0  0  0  0  0  0  0  0  0
   22.5963   19.0032   20.2733 H   0  0  0  0  0  0  0  0  0  0  0  0
   22.9884   17.4558   21.0520 H   0  0  0  0  0  0  0  0  0  0  0  0
  1  2  1  0  0  0  0
  1  3  2  0  0  0  0
  1  4  1  0  0  0  0
  4  5  1  0  0  0  0
  4  6  2  0  0  0  0
  6  7  1  0  0  0  0
  6  8  1  0  0  0  0
  8  9  1  0  0  0  0
  8 10  1  0  0  0  0
  8 11  1  0  0  0  0
 11 12  1  0  0  0  0
 11 13  1  0  0  0  0
 11 14  1  0  0  0  0
 14 15  1  0  0  0  0
 14 16  1  0  0  0  0
 14 17  1  0  0  0  0
M  END
> <VConfSearch Rank>
513

> <Conf_Id>
36

> <Delta U+W>
0.000

> <U+W>
-53.409

> <U>
9.048

> <W>
-62.457

> <W(PB)>
-64.540

> <W(SA)>
2.084

> <Valence>
2.652

> <Coulomb>
5.578

> <VdW>
0.818

> <VdW6>
-4.534

> <VdW12>
5.352

> <Bond>
0.063

> <Angle>
2.579

> <Pdih>
0.010

> <Idih>
0.000

> <Tether>
0.000

$$$$
VeraChem MOL file


 17 16  0  0  0  0  0  0  0  0999 V2000     
   22.7685   18.9325   19.9733 C   0  0  0  0  0  0  0  0  0  0  0  0
   22.7971   19.9560   19.3161 O   0  5  0  0  0  0  0  0  0  0  0  0
   23.5027   17.9882   19.7565 O   0  0  0  0  0  0  0  0  0  0  0  0
   21.8020   18.8079   21.0978 C   0  0  0  0  0  0  0  0  0  0  0  0
   21.8284   17.8680   21.6444 H   0  0  0  0  0  0  0  0  0  0  0  0
   20.9270   19.7769   21.4505 C   0  0  0  0  0  0  0  0  0  0  0  0
   20.8905   20.7216   20.9083 H   0  0  0  0  0  0  0  0  0  0  0  0
   19.9460   19.6414   22.5944 C   0  0  0  0  0  0  0  0  0  0  0  0
   19.6768   20.6386   22.9681 H   0  0  0  0  0  0  0  0  0  0  0  0
   20.4175   19.1104   23.4326 H   0  0  0  0  0  0  0  0  0  0  0  0
   18.6707   18.8931   22.1555 C   0  0  0  0  0  0  0  0  0  0  0  0
   18.1998   19.4273   21.3185 H   0  0  0  0  0  0  0  0  0  0  0  0
   18.9379   17.8936   21.7851 H   0  0  0  0  0  0  0  0  0  0  0  0
   17.6616   18.7590   23.3136 C   0  0  0  0  0  0  0  0  0  0  0  0
   17.3531   19.7461   23.6823 H   0  0  0  0  0  0  0  0  0  0  0  0
   16.7617   18.2245   22.9825 H   0  0  0  0  0  0  0  0  0  0  0  0
   18.0981   18.2007   24.1522 H   0  0  0  0  0  0  0  0  0  0  0  0
  1  2  1  0  0  0  0
  1  3  2  0  0  0  0
  1  4  1  0  0  0  0
  4  5  1  0  0  0  0
  4  6  2  0  0  0  0
  6  7  1  0  0  0  0
  6  8  1  0  0  0  0
  8  9  1  0  0  0  0
  8 10  1  0  0  0  0
  8 11  1  0  0  0  0
 11 12  1  0  0  0  0
 11 13  1  0  0  0  0
 11 14  1  0  0  0  0
 14 15  1  0  0  0  0
 14 16  1  0  0  0  0
 14 17  1  0  0  0  0
M  END
> <VConfSearch Rank>
514

> <Conf_Id>
1

> <Delta U+W>
0.030

> <U+W>
-53.378

> <U>
9.048

> <W>
-62.426

> <W(PB)>
-64.506

> <W(SA)>
2.080

> <Valence>
2.652

> <Coulomb>
5.578

> <VdW>
0.818

> <VdW6>
-4.535

> <VdW12>
5.352

> <Bond>
0.063

> <Angle>
2.579

> <Pdih>
0.010

> <Idih>
0.000

> <Tether>
0.000

$$$$
VeraChem MOL file


 17 16  0  0  0  0  0  0  0  0999 V2000     
   18.1345   19.5825   24.4406 C   0  0  0  0  0  0  0  0  0  0  0  0
   17.0905   19.8018   23.8556 O   0  5  0  0  0  0  0  0  0  0  0  0
   18.1844   19.3264   25.6280 O   0  0  0  0  0  0  0  0  0  0  0  0
   19.4201   19.6273   23.6926 C   0  0  0  0  0  0  0  0  0  0  0  0
   20.3155   19.4229   24.2750 H   0  0  0  0  0  0  0  0  0  0  0  0
   19.5139   19.8977   22.3709 C   0  0  0  0  0  0  0  0  0  0  0  0
   18.6228   20.1006   21.7772 H   0  0  0  0  0  0  0  0  0  0  0  0
   20.8256   19.9377   21.6154 C   0  0  0  0  0  0  0  0  0  0  0  0
   21.5906   20.4295   22.2315 H   0  0  0  0  0  0  0  0  0  0  0  0
   20.7173   20.5535   20.7125 H   0  0  0  0  0  0  0  0  0  0  0  0
   21.3209   18.5284   21.2229 C   0  0  0  0  0  0  0  0  0  0  0  0
   22.3206   18.6110   20.7745 H   0  0  0  0  0  0  0  0  0  0  0  0
   21.4315   17.9102   22.1246 H   0  0  0  0  0  0  0  0  0  0  0  0
   20.3764   17.8265   20.2239 C   0  0  0  0  0  0  0  0  0  0  0  0
   20.2609   18.4213   19.3085 H   0  0  0  0  0  0  0  0  0  0  0  0
   20.7750   16.8436   19.9414 H   0  0  0  0  0  0  0  0  0  0  0  0
   19.3811   17.6729   20.6609 H   0  0  0  0  0  0  0  0  0  0  0  0
  1  2  1  0  0  0  0
  1  3  2  0  0  0  0
  1  4  1  0  0  0  0
  4  5  1  0  0  0  0
  4  6  2  0  0  0  0
  6  7  1  0  0  0  0
  6  8  1  0  0  0  0
  8  9  1  0  0  0  0
  8 10  1  0  0  0  0
  8 11  1  0  0  0  0
 11 12  1  0  0  0  0
 11 13  1  0  0  0  0
 11 14  1  0  0  0  0
 14 15  1  0  0  0  0
 14 16  1  0  0  0  0
 14 17  1  0  0  0  0
M  END
> <VConfSearch Rank>
515

> <Conf_Id>
3

> <Delta U+W>
0.531

> <U+W>
-52.878

> <U>
10.067

> <W>
-62.945

> <W(PB)>
-64.982

> <W(SA)>
2.037

> <Valence>
2.779

> <Coulomb>
6.474

> <VdW>
0.815

> <VdW6>
-5.088

> <VdW12>
5.902

> <Bond>
0.078

> <Angle>
2.651

> <Pdih>
0.050

> <Idih>
0.000

> <Tether>
0.000

$$$$
VeraChem MOL file


 17 16  0  0  0  0  0  0  0  0999 V2000     
   17.7901   17.1258   22.7399 C   0  0  0  0  0  0  0  0  0  0  0  0
   16.5884   17.2192   22.5820 O   0  5  0  0  0  0  0  0  0  0  0  0
   18.2939   16.3488   23.5291 O   0  0  0  0  0  0  0  0  0  0  0  0
   18.6620   18.0083   21.9183 C   0  0  0  0  0  0  0  0  0  0  0  0
   18.1473   18.6782   21.2334 H   0  0  0  0  0  0  0  0  0  0  0  0
   20.0126   18.0125   21.9913 C   0  0  0  0  0  0  0  0  0  0  0  0
   20.5362   17.3471   22.6774 H   0  0  0  0  0  0  0  0  0  0  0  0
   20.8974   18.9141   21.1555 C   0  0  0  0  0  0  0  0  0  0  0  0
   20.3399   19.3162   20.2987 H   0  0  0  0  0  0  0  0  0  0  0  0
   21.7184   18.3192   20.7335 H   0  0  0  0  0  0  0  0  0  0  0  0
   21.4935   20.0770   21.9787 C   0  0  0  0  0  0  0  0  0  0  0  0
   22.0492   19.6757   22.8375 H   0  0  0  0  0  0  0  0  0  0  0  0
   22.2216   20.6184   21.3591 H   0  0  0  0  0  0  0  0  0  0  0  0
   20.4176   21.0679   22.4721 C   0  0  0  0  0  0  0  0  0  0  0  0
   19.7063   20.5760   23.1482 H   0  0  0  0  0  0  0  0  0  0  0  0
   20.8805   21.8998   23.0184 H   0  0  0  0  0  0  0  0  0  0  0  0
   19.8542   21.4876   21.6286 H   0  0  0  0  0  0  0  0  0  0  0  0
  1  2  1  0  0  0  0
  1  3  2  0  0  0  0
  1  4  1  0  0  0  0
  4  5  1  0  0  0  0
  4  6  2  0  0  0  0
  6  7  1  0  0  0  0
  6  8  1  0  0  0  0
  8  9  1  0  0  0  0
  8 10  1  0  0  0  0
  8 11  1  0  0  0  0
 11 12  1  0  0  0  0
 11 13  1  0  0  0  0
 11 14  1  0  0  0  0
 14 15  1  0  0  0  0
 14 16  1  0  0  0  0
 14 17  1  0  0  0  0
M  END
> <VConfSearch Rank>
516

> <Conf_Id>
45

> <Delta U+W>
0.562

> <U+W>
-52.846

> <U>
10.243

> <W>
-63.089

> <W(PB)>
-65.116

> <W(SA)>
2.026

> <Valence>
2.822

> <Coulomb>
6.637

> <VdW>
0.785

> <VdW6>
-5.216

> <VdW12>
6.001

> <Bond>
0.080

> <Angle>
2.678

> <Pdih>
0.064

> <Idih>
0.000

> <Tether>
0.000

$$$$
VeraChem MOL file


 17 16  0  0  0  0  0  0  0  0999 V2000     
   23.3413   19.3121   22.2739 C   0  0  0  0  0  0  0  0  0  0  0  0
   24.0646   18.7386   23.0649 O   0  5  0  0  0  0  0  0  0  0  0  0
   23.7139   20.2556   21.6020 O   0  0  0  0  0  0  0  0  0  0  0  0
   21.9439   18.8194   22.1380 C   0  0  0  0  0  0  0  0  0  0  0  0
   21.6756   17.9735   22.7668 H   0  0  0  0  0  0  0  0  0  0  0  0
   21.0317   19.3617   21.2996 C   0  0  0  0  0  0  0  0  0  0  0  0
   21.2891   20.2109   20.6668 H   0  0  0  0  0  0  0  0  0  0  0  0
   19.6117   18.8559   21.1690 C   0  0  0  0  0  0  0  0  0  0  0  0
   19.5965   17.7592   21.2301 H   0  0  0  0  0  0  0  0  0  0  0  0
   19.2171   19.1191   20.1783 H   0  0  0  0  0  0  0  0  0  0  0  0
   18.7005   19.4509   22.2621 C   0  0  0  0  0  0  0  0  0  0  0  0
   19.0916   19.1849   23.2540 H   0  0  0  0  0  0  0  0  0  0  0  0
   18.7158   20.5478   22.1976 H   0  0  0  0  0  0  0  0  0  0  0  0
   17.2491   18.9475   22.1302 C   0  0  0  0  0  0  0  0  0  0  0  0
   16.8225   19.2283   21.1582 H   0  0  0  0  0  0  0  0  0  0  0  0
   17.2024   17.8545   22.2224 H   0  0  0  0  0  0  0  0  0  0  0  0
   16.6165   19.3811   22.9157 H   0  0  0  0  0  0  0  0  0  0  0  0
  1  2  1  0  0  0  0
  1  3  2  0  0  0  0
  1  4  1  0  0  0  0
  4  5  1  0  0  0  0
  4  6  2  0  0  0  0
  6  7  1  0  0  0  0
  6  8  1  0  0  0  0
  8  9  1  0  0  0  0
  8 10  1  0  0  0  0
  8 11  1  0  0  0  0
 11 12  1  0  0  0  0
 11 13  1  0  0  0  0
 11 14  1  0  0  0  0
 14 15  1  0  0  0  0
 14 16  1  0  0  0  0
 14 17  1  0  0  0  0
M  END
> <VConfSearch Rank>
517

> <Conf_Id>
36

> <Delta U+W>
0.000

> <U+W>
-53.409

> <U>
9.048

> <W>
-62.457

> <W(PB)>
-64.540

> <W(SA)>
2.084

> <Valence>
2.652

> <Coulomb>
5.578

> <VdW>
0.818

> <VdW6>
-4.534

> <VdW12>
5.352

> <Bond>
0.063

> <Angle>
2.579

> <Pdih>
0.010

> <Idih>
0.000

> <Tether>
0.000

$$$$
VeraChem MOL file


 17 16  0  0  0  0  0  0  0  0999 V2000     
   17.7510   16.5921   21.9090 C   0  0  0  0  0  0  0  0  0  0  0  0
   17.4510   16.3859   23.0699 O   0  5  0  0  0  0  0  0  0  0  0  0
   17.4232   15.8530   21.0013 O   0  0  0  0  0  0  0  0  0  0  0  0
   18.5526   17.7961   21.5598 C   0  0  0  0  0  0  0  0  0  0  0  0
   18.7862   17.9212   20.5049 H   0  0  0  0  0  0  0  0  0  0  0  0
   18.9859   18.7019   22.4658 C   0  0  0  0  0  0  0  0  0  0  0  0
   18.7594   18.5851   23.5255 H   0  0  0  0  0  0  0  0  0  0  0  0
   19.8024   19.9228   22.1025 C   0  0  0  0  0  0  0  0  0  0  0  0
   19.6602   20.7006   22.8649 H   0  0  0  0  0  0  0  0  0  0  0  0
   19.4441   20.3456   21.1541 H   0  0  0  0  0  0  0  0  0  0  0  0
   21.3022   19.5817   21.9868 C   0  0  0  0  0  0  0  0  0  0  0  0
   21.6587   19.1610   22.9373 H   0  0  0  0  0  0  0  0  0  0  0  0
   21.4467   18.8065   21.2215 H   0  0  0  0  0  0  0  0  0  0  0  0
   22.1426   20.8231   21.6258 C   0  0  0  0  0  0  0  0  0  0  0  0
   22.0410   21.6028   22.3920 H   0  0  0  0  0  0  0  0  0  0  0  0
   23.2058   20.5610   21.5480 H   0  0  0  0  0  0  0  0  0  0  0  0
   21.8263   21.2451   20.6628 H   0  0  0  0  0  0  0  0  0  0  0  0
  1  2  1  0  0  0  0
  1  3  2  0  0  0  0
  1  4  1  0  0  0  0
  4  5  1  0  0  0  0
  4  6  2  0  0  0  0
  6  7  1  0  0  0  0
  6  8  1  0  0  0  0
  8  9  1  0  0  0  0
  8 10  1  0  0  0  0
  8 11  1  0  0  0  0
 11 12  1  0  0  0  0
 11 13  1  0  0  0  0
 11 14  1  0  0  0  0
 14 15  1  0  0  0  0
 14 16  1  0  0  0  0
 14 17  1  0  0  0  0
M  END
> <VConfSearch Rank>
518

> <Conf_Id>
1

> <Delta U+W>
0.030

> <U+W>
-53.378

> <U>
9.048

> <W>
-62.426

> <W(PB)>
-64.506

> <W(SA)>
2.080

> <Valence>
2.652

> <Coulomb>
5.578

> <VdW>
0.818

> <VdW6>
-4.535

> <VdW12>
5.352

> <Bond>
0.063

> <Angle>
2.579

> <Pdih>
0.010

> <Idih>
0.000

> <Tether>
0.000

$$$$
VeraChem MOL file


 17 16  0  0  0  0  0  0  0  0999 V2000     
   20.5590   17.4960   19.4674 C   0  0  0  0  0  0  0  0  0  0  0  0
   20.5101   18.3907   18.6443 O   0  5  0  0  0  0  0  0  0  0  0  0
   21.0359   16.4038   19.2272 O   0  0  0  0  0  0  0  0  0  0  0  0
   20.0147   17.7229   20.8335 C   0  0  0  0  0  0  0  0  0  0  0  0
   20.0889   16.8825   21.5197 H   0  0  0  0  0  0  0  0  0  0  0  0
   19.4575   18.8865   21.2391 C   0  0  0  0  0  0  0  0  0  0  0  0
   19.3812   19.7361   20.5608 H   0  0  0  0  0  0  0  0  0  0  0  0
   18.9091   19.1114   22.6325 C   0  0  0  0  0  0  0  0  0  0  0  0
   18.3709   18.2138   22.9658 H   0  0  0  0  0  0  0  0  0  0  0  0
   18.1694   19.9232   22.6156 H   0  0  0  0  0  0  0  0  0  0  0  0
   20.0185   19.4450   23.6539 C   0  0  0  0  0  0  0  0  0  0  0  0
   19.5784   19.4928   24.6595 H   0  0  0  0  0  0  0  0  0  0  0  0
   20.7596   18.6338   23.6740 H   0  0  0  0  0  0  0  0  0  0  0  0
   20.7220   20.7842   23.3469 C   0  0  0  0  0  0  0  0  0  0  0  0
   20.0014   21.6124   23.3342 H   0  0  0  0  0  0  0  0  0  0  0  0
   21.4797   21.0059   24.1096 H   0  0  0  0  0  0  0  0  0  0  0  0
   21.2254   20.7528   22.3718 H   0  0  0  0  0  0  0  0  0  0  0  0
  1  2  1  0  0  0  0
  1  3  2  0  0  0  0
  1  4  1  0  0  0  0
  4  5  1  0  0  0  0
  4  6  2  0  0  0  0
  6  7  1  0  0  0  0
  6  8  1  0  0  0  0
  8  9  1  0  0  0  0
  8 10  1  0  0  0  0
  8 11  1  0  0  0  0
 11 12  1  0  0  0  0
 11 13  1  0  0  0  0
 11 14  1  0  0  0  0
 14 15  1  0  0  0  0
 14 16  1  0  0  0  0
 14 17  1  0  0  0  0
M  END
> <VConfSearch Rank>
519

> <Conf_Id>
3

> <Delta U+W>
0.531

> <U+W>
-52.878

> <U>
10.067

> <W>
-62.945

> <W(PB)>
-64.982

> <W(SA)>
2.037

> <Valence>
2.779

> <Coulomb>
6.474

> <VdW>
0.815

> <VdW6>
-5.088

> <VdW12>
5.902

> <Bond>
0.078

> <Angle>
2.651

> <Pdih>
0.050

> <Idih>
0.000

> <Tether>
0.000

$$$$
VeraChem MOL file


 17 16  0  0  0  0  0  0  0  0999 V2000     
   20.7582   16.6797   23.7053 C   0  0  0  0  0  0  0  0  0  0  0  0
   21.5218   15.7747   23.4303 O   0  5  0  0  0  0  0  0  0  0  0  0
   19.8953   16.5798   24.5572 O   0  0  0  0  0  0  0  0  0  0  0  0
   20.9074   17.9565   22.9558 C   0  0  0  0  0  0  0  0  0  0  0  0
   21.6978   17.9781   22.2091 H   0  0  0  0  0  0  0  0  0  0  0  0
   20.1272   19.0432   23.1557 C   0  0  0  0  0  0  0  0  0  0  0  0
   19.3307   19.0289   23.8992 H   0  0  0  0  0  0  0  0  0  0  0  0
   20.2798   20.3407   22.3891 C   0  0  0  0  0  0  0  0  0  0  0  0
   21.2618   20.3868   21.8990 H   0  0  0  0  0  0  0  0  0  0  0  0
   20.2520   21.1803   23.0965 H   0  0  0  0  0  0  0  0  0  0  0  0
   19.1654   20.5348   21.3376 C   0  0  0  0  0  0  0  0  0  0  0  0
   18.1826   20.4861   21.8267 H   0  0  0  0  0  0  0  0  0  0  0  0
   19.2515   21.5413   20.9057 H   0  0  0  0  0  0  0  0  0  0  0  0
   19.2332   19.4924   20.2011 C   0  0  0  0  0  0  0  0  0  0  0  0
   19.0861   18.4753   20.5871 H   0  0  0  0  0  0  0  0  0  0  0  0
   18.4524   19.6846   19.4539 H   0  0  0  0  0  0  0  0  0  0  0  0
   20.2055   19.5286   19.6928 H   0  0  0  0  0  0  0  0  0  0  0  0
  1  2  1  0  0  0  0
  1  3  2  0  0  0  0
  1  4  1  0  0  0  0
  4  5  1  0  0  0  0
  4  6  2  0  0  0  0
  6  7  1  0  0  0  0
  6  8  1  0  0  0  0
  8  9  1  0  0  0  0
  8 10  1  0  0  0  0
  8 11  1  0  0  0  0
 11 12  1  0  0  0  0
 11 13  1  0  0  0  0
 11 14  1  0  0  0  0
 14 15  1  0  0  0  0
 14 16  1  0  0  0  0
 14 17  1  0  0  0  0
M  END
> <VConfSearch Rank>
520

> <Conf_Id>
45

> <Delta U+W>
0.562

> <U+W>
-52.846

> <U>
10.243

> <W>
-63.089

> <W(PB)>
-65.116

> <W(SA)>
2.026

> <Valence>
2.822

> <Coulomb>
6.637

> <VdW>
0.785

> <VdW6>
-5.216

> <VdW12>
6.001

> <Bond>
0.080

> <Angle>
2.678

> <Pdih>
0.064

> <Idih>
0.000

> <Tether>
0.000

$$$$
VeraChem MOL file


 17 16  0  0  0  0  0  0  0  0999 V2000     
   17.3603   21.2261   21.9364 C   0  0  0  0  0  0  0  0  0  0  0  0
   16.7125   21.6583   21.0030 O   0  5  0  0  0  0  0  0  0  0  0  0
   17.2866   21.6857   23.0606 O   0  0  0  0  0  0  0  0  0  0  0  0
   18.2754   20.0839   21.6679 C   0  0  0  0  0  0  0  0  0  0  0  0
   18.2935   19.7212   20.6427 H   0  0  0  0  0  0  0  0  0  0  0  0
   19.0548   19.5051   22.6095 C   0  0  0  0  0  0  0  0  0  0  0  0
   19.0462   19.8621   23.6391 H   0  0  0  0  0  0  0  0  0  0  0  0
   19.9845   18.3451   22.3276 C   0  0  0  0  0  0  0  0  0  0  0  0
   19.5138   17.6503   21.6187 H   0  0  0  0  0  0  0  0  0  0  0  0
   20.1567   17.7786   23.2527 H   0  0  0  0  0  0  0  0  0  0  0  0
   21.3342   18.8316   21.7613 C   0  0  0  0  0  0  0  0  0  0  0  0
   21.1639   19.3950   20.8334 H   0  0  0  0  0  0  0  0  0  0  0  0
   21.8039   19.5247   22.4729 H   0  0  0  0  0  0  0  0  0  0  0  0
   22.2911   17.6557   21.4801 C   0  0  0  0  0  0  0  0  0  0  0  0
   22.5037   17.0936   22.3989 H   0  0  0  0  0  0  0  0  0  0  0  0
   21.8575   16.9630   20.7469 H   0  0  0  0  0  0  0  0  0  0  0  0
   23.2451   18.0210   21.0780 H   0  0  0  0  0  0  0  0  0  0  0  0
  1  2  1  0  0  0  0
  1  3  2  0  0  0  0
  1  4  1  0  0  0  0
  4  5  1  0  0  0  0
  4  6  2  0  0  0  0
  6  7  1  0  0  0  0
  6  8  1  0  0  0  0
  8  9  1  0  0  0  0
  8 10  1  0  0  0  0
  8 11  1  0  0  0  0
 11 12  1  0  0  0  0
 11 13  1  0  0  0  0
 11 14  1  0  0  0  0
 14 15  1  0  0  0  0
 14 16  1  0  0  0  0
 14 17  1  0  0  0  0
M  END
> <VConfSearch Rank>
521

> <Conf_Id>
36

> <Delta U+W>
0.000

> <U+W>
-53.409

> <U>
9.048

> <W>
-62.457

> <W(PB)>
-64.540

> <W(SA)>
2.084

> <Valence>
2.652

> <Coulomb>
5.578

> <VdW>
0.818

> <VdW6>
-4.534

> <VdW12>
5.352

> <Bond>
0.063

> <Angle>
2.579

> <Pdih>
0.010

> <Idih>
0.000

> <Tether>
0.000

$$$$
VeraChem MOL file


 17 16  0  0  0  0  0  0  0  0999 V2000     
   21.7944   20.3284   19.3286 C   0  0  0  0  0  0  0  0  0  0  0  0
   21.8163   19.4654   18.4712 O   0  5  0  0  0  0  0  0  0  0  0  0
   22.4869   21.3262   19.2785 O   0  0  0  0  0  0  0  0  0  0  0  0
   20.8873   20.1791   20.4987 C   0  0  0  0  0  0  0  0  0  0  0  0
   20.9165   20.9856   21.2278 H   0  0  0  0  0  0  0  0  0  0  0  0
   20.0640   19.1223   20.6840 C   0  0  0  0  0  0  0  0  0  0  0  0
   20.0284   18.3077   19.9610 H   0  0  0  0  0  0  0  0  0  0  0  0
   19.1458   18.9773   21.8779 C   0  0  0  0  0  0  0  0  0  0  0  0
   18.2997   18.3284   21.6145 H   0  0  0  0  0  0  0  0  0  0  0  0
   18.7194   19.9539   22.1446 H   0  0  0  0  0  0  0  0  0  0  0  0
   19.8915   18.3859   23.0917 C   0  0  0  0  0  0  0  0  0  0  0  0
   20.3152   17.4082   22.8232 H   0  0  0  0  0  0  0  0  0  0  0  0
   20.7360   19.0362   23.3591 H   0  0  0  0  0  0  0  0  0  0  0  0
   18.9601   18.2263   24.3101 C   0  0  0  0  0  0  0  0  0  0  0  0
   18.1229   17.5545   24.0795 H   0  0  0  0  0  0  0  0  0  0  0  0
   19.5078   17.8046   25.1629 H   0  0  0  0  0  0  0  0  0  0  0  0
   18.5471   19.1956   24.6185 H   0  0  0  0  0  0  0  0  0  0  0  0
  1  2  1  0  0  0  0
  1  3  2  0  0  0  0
  1  4  1  0  0  0  0
  4  5  1  0  0  0  0
  4  6  2  0  0  0  0
  6  7  1  0  0  0  0
  6  8  1  0  0  0  0
  8  9  1  0  0  0  0
  8 10  1  0  0  0  0
  8 11  1  0  0  0  0
 11 12  1  0  0  0  0
 11 13  1  0  0  0  0
 11 14  1  0  0  0  0
 14 15  1  0  0  0  0
 14 16  1  0  0  0  0
 14 17  1  0  0  0  0
M  END
> <VConfSearch Rank>
522

> <Conf_Id>
1

> <Delta U+W>
0.030

> <U+W>
-53.378

> <U>
9.048

> <W>
-62.426

> <W(PB)>
-64.506

> <W(SA)>
2.080

> <Valence>
2.652

> <Coulomb>
5.578

> <VdW>
0.818

> <VdW6>
-4.535

> <VdW12>
5.352

> <Bond>
0.063

> <Angle>
2.579

> <Pdih>
0.010

> <Idih>
0.000

> <Tether>
0.000

$$$$
VeraChem MOL file


 17 16  0  0  0  0  0  0  0  0999 V2000     
   19.2625   21.9776   21.2883 C   0  0  0  0  0  0  0  0  0  0  0  0
   19.7808   22.5881   22.2043 O   0  5  0  0  0  0  0  0  0  0  0  0
   18.8895   22.5160   20.2641 O   0  0  0  0  0  0  0  0  0  0  0  0
   19.0624   20.5077   21.4042 C   0  0  0  0  0  0  0  0  0  0  0  0
   18.5931   20.0238   20.5508 H   0  0  0  0  0  0  0  0  0  0  0  0
   19.4295   19.7800   22.4834 C   0  0  0  0  0  0  0  0  0  0  0  0
   19.9036   20.2542   23.3425 H   0  0  0  0  0  0  0  0  0  0  0  0
   19.2261   18.2834   22.5927 C   0  0  0  0  0  0  0  0  0  0  0  0
   18.2444   18.0140   22.1801 H   0  0  0  0  0  0  0  0  0  0  0  0
   19.2060   17.9860   23.6498 H   0  0  0  0  0  0  0  0  0  0  0  0
   20.3224   17.4859   21.8527 C   0  0  0  0  0  0  0  0  0  0  0  0
   20.0669   16.4175   21.8759 H   0  0  0  0  0  0  0  0  0  0  0  0
   20.3441   17.7804   20.7943 H   0  0  0  0  0  0  0  0  0  0  0  0
   21.7206   17.6838   22.4762 C   0  0  0  0  0  0  0  0  0  0  0  0
   21.7258   17.3835   23.5321 H   0  0  0  0  0  0  0  0  0  0  0  0
   22.4680   17.0779   21.9478 H   0  0  0  0  0  0  0  0  0  0  0  0
   22.0357   18.7338   22.4168 H   0  0  0  0  0  0  0  0  0  0  0  0
  1  2  1  0  0  0  0
  1  3  2  0  0  0  0
  1  4  1  0  0  0  0
  4  5  1  0  0  0  0
  4  6  2  0  0  0  0
  6  7  1  0  0  0  0
  6  8  1  0  0  0  0
  8  9  1  0  0  0  0
  8 10  1  0  0  0  0
  8 11  1  0  0  0  0
 11 12  1  0  0  0  0
 11 13  1  0  0  0  0
 11 14  1  0  0  0  0
 14 15  1  0  0  0  0
 14 16  1  0  0  0  0
 14 17  1  0  0  0  0
M  END
> <VConfSearch Rank>
523

> <Conf_Id>
3

> <Delta U+W>
0.531

> <U+W>
-52.878

> <U>
10.067

> <W>
-62.945

> <W(PB)>
-64.982

> <W(SA)>
2.037

> <Valence>
2.779

> <Coulomb>
6.474

> <VdW>
0.815

> <VdW6>
-5.088

> <VdW12>
5.902

> <Bond>
0.078

> <Angle>
2.651

> <Pdih>
0.050

> <Idih>
0.000

> <Tether>
0.000

$$$$
VeraChem MOL file


 17 16  0  0  0  0  0  0  0  0999 V2000     
   22.3625   20.9241   21.7628 C   0  0  0  0  0  0  0  0  0  0  0  0
   23.1300   21.0417   20.8275 O   0  5  0  0  0  0  0  0  0  0  0  0
   22.6395   21.2798   22.8930 O   0  0  0  0  0  0  0  0  0  0  0  0
   21.0313   20.3189   21.4878 C   0  0  0  0  0  0  0  0  0  0  0  0
   20.8489   20.0235   20.4572 H   0  0  0  0  0  0  0  0  0  0  0  0
   20.0818   20.1258   22.4316 C   0  0  0  0  0  0  0  0  0  0  0  0
   20.2577   20.4155   23.4672 H   0  0  0  0  0  0  0  0  0  0  0  0
   18.7285   19.5068   22.1490 C   0  0  0  0  0  0  0  0  0  0  0  0
   18.5114   19.5273   21.0723 H   0  0  0  0  0  0  0  0  0  0  0  0
   17.9494   20.1140   22.6290 H   0  0  0  0  0  0  0  0  0  0  0  0
   18.6264   18.0571   22.6714 C   0  0  0  0  0  0  0  0  0  0  0  0
   18.8459   18.0353   23.7479 H   0  0  0  0  0  0  0  0  0  0  0  0
   17.5917   17.7062   22.5551 H   0  0  0  0  0  0  0  0  0  0  0  0
   19.5720   17.0898   21.9278 C   0  0  0  0  0  0  0  0  0  0  0  0
   20.6227   17.3718   22.0748 H   0  0  0  0  0  0  0  0  0  0  0  0
   19.4442   16.0643   22.2978 H   0  0  0  0  0  0  0  0  0  0  0  0
   19.3650   17.0897   20.8497 H   0  0  0  0  0  0  0  0  0  0  0  0
  1  2  1  0  0  0  0
  1  3  2  0  0  0  0
  1  4  1  0  0  0  0
  4  5  1  0  0  0  0
  4  6  2  0  0  0  0
  6  7  1  0  0  0  0
  6  8  1  0  0  0  0
  8  9  1  0  0  0  0
  8 10  1  0  0  0  0
  8 11  1  0  0  0  0
 11 12  1  0  0  0  0
 11 13  1  0  0  0  0
 11 14  1  0  0  0  0
 14 15  1  0  0  0  0
 14 16  1  0  0  0  0
 14 17  1  0  0  0  0
M  END
> <VConfSearch Rank>
524

> <Conf_Id>
45

> <Delta U+W>
0.562

> <U+W>
-52.846

> <U>
10.243

> <W>
-63.089

> <W(PB)>
-65.116

> <W(SA)>
2.026

> <Valence>
2.822

> <Coulomb>
6.637

> <VdW>
0.785

> <VdW6>
-5.216

> <VdW12>
6.001

> <Bond>
0.080

> <Angle>
2.678

> <Pdih>
0.064

> <Idih>
0.000

> <Tether>
0.000

$$$$
VeraChem MOL file


 17 16  0  0  0  0  0  0  0  0999 V2000     
   22.1046   19.7214   19.3532 C   0  0  0  0  0  0  0  0  0  0  0  0
   22.2800   20.7480   18.7262 O   0  5  0  0  0  0  0  0  0  0  0  0
   22.5327   18.6428   18.9877 O   0  0  0  0  0  0  0  0  0  0  0  0
   21.3307   19.8137   20.6207 C   0  0  0  0  0  0  0  0  0  0  0  0
   20.9770   20.8064   20.8896 H   0  0  0  0  0  0  0  0  0  0  0  0
   21.0592   18.7547   21.4169 C   0  0  0  0  0  0  0  0  0  0  0  0
   21.4067   17.7552   21.1558 H   0  0  0  0  0  0  0  0  0  0  0  0
   20.2695   18.8567   22.7034 C   0  0  0  0  0  0  0  0  0  0  0  0
   20.5303   19.7839   23.2317 H   0  0  0  0  0  0  0  0  0  0  0  0
   20.5448   18.0289   23.3707 H   0  0  0  0  0  0  0  0  0  0  0  0
   18.7510   18.8201   22.4350 C   0  0  0  0  0  0  0  0  0  0  0  0
   18.4732   19.6503   21.7709 H   0  0  0  0  0  0  0  0  0  0  0  0
   18.4923   17.8910   21.9084 H   0  0  0  0  0  0  0  0  0  0  0  0
   17.9389   18.9142   23.7423 C   0  0  0  0  0  0  0  0  0  0  0  0
   18.1744   18.0769   24.4124 H   0  0  0  0  0  0  0  0  0  0  0  0
   18.1564   19.8502   24.2734 H   0  0  0  0  0  0  0  0  0  0  0  0
   16.8619   18.8867   23.5314 H   0  0  0  0  0  0  0  0  0  0  0  0
  1  2  1  0  0  0  0
  1  3  2  0  0  0  0
  1  4  1  0  0  0  0
  4  5  1  0  0  0  0
  4  6  2  0  0  0  0
  6  7  1  0  0  0  0
  6  8  1  0  0  0  0
  8  9  1  0  0  0  0
  8 10  1  0  0  0  0
  8 11  1  0  0  0  0
 11 12  1  0  0  0  0
 11 13  1  0  0  0  0
 11 14  1  0  0  0  0
 14 15  1  0  0  0  0
 14 16  1  0  0  0  0
 14 17  1  0  0  0  0
M  END
> <VConfSearch Rank>
525

> <Conf_Id>
36

> <Delta U+W>
0.000

> <U+W>
-53.409

> <U>
9.048

> <W>
-62.457

> <W(PB)>
-64.540

> <W(SA)>
2.084

> <Valence>
2.652

> <Coulomb>
5.578

> <VdW>
0.818

> <VdW6>
-4.534

> <VdW12>
5.352

> <Bond>
0.063

> <Angle>
2.579

> <Pdih>
0.010

> <Idih>
0.000

> <Tether>
0.000

$$$$
VeraChem MOL file


 17 16  0  0  0  0  0  0  0  0999 V2000     
   19.1707   22.2854   22.6038 C   0  0  0  0  0  0  0  0  0  0  0  0
   19.5480   22.9607   21.6647 O   0  5  0  0  0  0  0  0  0  0  0  0
   18.7742   22.7681   23.6467 O   0  0  0  0  0  0  0  0  0  0  0  0
   19.1844   20.8015   22.4944 C   0  0  0  0  0  0  0  0  0  0  0  0
   18.8345   20.2579   23.3690 H   0  0  0  0  0  0  0  0  0  0  0  0
   19.6000   20.1305   21.3961 C   0  0  0  0  0  0  0  0  0  0  0  0
   19.9546   20.6652   20.5151 H   0  0  0  0  0  0  0  0  0  0  0  0
   19.6125   18.6210   21.2937 C   0  0  0  0  0  0  0  0  0  0  0  0
   19.5516   18.3235   20.2382 H   0  0  0  0  0  0  0  0  0  0  0  0
   18.7245   18.2037   21.7877 H   0  0  0  0  0  0  0  0  0  0  0  0
   20.8876   18.0255   21.9251 C   0  0  0  0  0  0  0  0  0  0  0  0
   21.7743   18.4428   21.4279 H   0  0  0  0  0  0  0  0  0  0  0  0
   20.9479   18.3189   22.9824 H   0  0  0  0  0  0  0  0  0  0  0  0
   20.9124   16.4876   21.8165 C   0  0  0  0  0  0  0  0  0  0  0  0
   20.8850   16.1673   20.7667 H   0  0  0  0  0  0  0  0  0  0  0  0
   21.8260   16.0825   22.2706 H   0  0  0  0  0  0  0  0  0  0  0  0
   20.0515   16.0434   22.3332 H   0  0  0  0  0  0  0  0  0  0  0  0
  1  2  1  0  0  0  0
  1  3  2  0  0  0  0
  1  4  1  0  0  0  0
  4  5  1  0  0  0  0
  4  6  2  0  0  0  0
  6  7  1  0  0  0  0
  6  8  1  0  0  0  0
  8  9  1  0  0  0  0
  8 10  1  0  0  0  0
  8 11  1  0  0  0  0
 11 12  1  0  0  0  0
 11 13  1  0  0  0  0
 11 14  1  0  0  0  0
 14 15  1  0  0  0  0
 14 16  1  0  0  0  0
 14 17  1  0  0  0  0
M  END
> <VConfSearch Rank>
526

> <Conf_Id>
1

> <Delta U+W>
0.030

> <U+W>
-53.378

> <U>
9.048

> <W>
-62.426

> <W(PB)>
-64.506

> <W(SA)>
2.080

> <Valence>
2.652

> <Coulomb>
5.578

> <VdW>
0.818

> <VdW6>
-4.535

> <VdW12>
5.352

> <Bond>
0.063

> <Angle>
2.579

> <Pdih>
0.010

> <Idih>
0.000

> <Tether>
0.000

$$$$
VeraChem MOL file


 17 16  0  0  0  0  0  0  0  0999 V2000     
   18.3357   16.5066   22.1602 C   0  0  0  0  0  0  0  0  0  0  0  0
   17.5036   16.8223   22.9899 O   0  5  0  0  0  0  0  0  0  0  0  0
   18.2040   15.5471   21.4255 O   0  0  0  0  0  0  0  0  0  0  0  0
   19.5788   17.3127   22.0219 C   0  0  0  0  0  0  0  0  0  0  0  0
   20.2809   16.9759   21.2626 H   0  0  0  0  0  0  0  0  0  0  0  0
   19.8563   18.4043   22.7703 C   0  0  0  0  0  0  0  0  0  0  0  0
   19.1584   18.7524   23.5315 H   0  0  0  0  0  0  0  0  0  0  0  0
   21.1221   19.2221   22.6212 C   0  0  0  0  0  0  0  0  0  0  0  0
   21.9781   18.5511   22.4681 H   0  0  0  0  0  0  0  0  0  0  0  0
   21.3244   19.7690   23.5519 H   0  0  0  0  0  0  0  0  0  0  0  0
   21.0427   20.2183   21.4436 C   0  0  0  0  0  0  0  0  0  0  0  0
   22.0198   20.7050   21.3184 H   0  0  0  0  0  0  0  0  0  0  0  0
   20.8415   19.6738   20.5106 H   0  0  0  0  0  0  0  0  0  0  0  0
   19.9634   21.3011   21.6567 C   0  0  0  0  0  0  0  0  0  0  0  0
   20.1516   21.8672   22.5782 H   0  0  0  0  0  0  0  0  0  0  0  0
   19.9574   22.0101   20.8186 H   0  0  0  0  0  0  0  0  0  0  0  0
   18.9629   20.8547   21.7268 H   0  0  0  0  0  0  0  0  0  0  0  0
  1  2  1  0  0  0  0
  1  3  2  0  0  0  0
  1  4  1  0  0  0  0
  4  5  1  0  0  0  0
  4  6  2  0  0  0  0
  6  7  1  0  0  0  0
  6  8  1  0  0  0  0
  8  9  1  0  0  0  0
  8 10  1  0  0  0  0
  8 11  1  0  0  0  0
 11 12  1  0  0  0  0
 11 13  1  0  0  0  0
 11 14  1  0  0  0  0
 14 15  1  0  0  0  0
 14 16  1  0  0  0  0
 14 17  1  0  0  0  0
M  END
> <VConfSearch Rank>
527

> <Conf_Id>
3

> <Delta U+W>
0.531

> <U+W>
-52.878

> <U>
10.067

> <W>
-62.945

> <W(PB)>
-64.982

> <W(SA)>
2.037

> <Valence>
2.779

> <Coulomb>
6.474

> <VdW>
0.815

> <VdW6>
-5.088

> <VdW12>
5.902

> <Bond>
0.078

> <Angle>
2.651

> <Pdih>
0.050

> <Idih>
0.000

> <Tether>
0.000

$$$$
VeraChem MOL file


 17 16  0  0  0  0  0  0  0  0999 V2000     
   19.0574   21.3784   20.3218 C   0  0  0  0  0  0  0  0  0  0  0  0
   17.9359   21.6681   19.9529 O   0  5  0  0  0  0  0  0  0  0  0  0
   20.0604   21.7614   19.7493 O   0  0  0  0  0  0  0  0  0  0  0  0
   19.1831   20.5196   21.5304 C   0  0  0  0  0  0  0  0  0  0  0  0
   18.2479   20.2129   21.9931 H   0  0  0  0  0  0  0  0  0  0  0  0
   20.3657   20.1185   22.0502 C   0  0  0  0  0  0  0  0  0  0  0  0
   21.3073   20.4182   21.5907 H   0  0  0  0  0  0  0  0  0  0  0  0
   20.4903   19.2419   23.2791 C   0  0  0  0  0  0  0  0  0  0  0  0
   19.5506   19.2382   23.8481 H   0  0  0  0  0  0  0  0  0  0  0  0
   21.2503   19.6679   23.9477 H   0  0  0  0  0  0  0  0  0  0  0  0
   20.8892   17.7921   22.9269 C   0  0  0  0  0  0  0  0  0  0  0  0
   21.8278   17.7950   22.3554 H   0  0  0  0  0  0  0  0  0  0  0  0
   21.0889   17.2396   23.8554 H   0  0  0  0  0  0  0  0  0  0  0  0
   19.7953   17.0527   22.1272 C   0  0  0  0  0  0  0  0  0  0  0  0
   19.6132   17.5404   21.1608 H   0  0  0  0  0  0  0  0  0  0  0  0
   20.0962   16.0158   21.9291 H   0  0  0  0  0  0  0  0  0  0  0  0
   18.8493   17.0310   22.6836 H   0  0  0  0  0  0  0  0  0  0  0  0
  1  2  1  0  0  0  0
  1  3  2  0  0  0  0
  1  4  1  0  0  0  0
  4  5  1  0  0  0  0
  4  6  2  0  0  0  0
  6  7  1  0  0  0  0
  6  8  1  0  0  0  0
  8  9  1  0  0  0  0
  8 10  1  0  0  0  0
  8 11  1  0  0  0  0
 11 12  1  0  0  0  0
 11 13  1  0  0  0  0
 11 14  1  0  0  0  0
 14 15  1  0  0  0  0
 14 16  1  0  0  0  0
 14 17  1  0  0  0  0
M  END
> <VConfSearch Rank>
528

> <Conf_Id>
45

> <Delta U+W>
0.562

> <U+W>
-52.846

> <U>
10.243

> <W>
-63.089

> <W(PB)>
-65.116

> <W(SA)>
2.026

> <Valence>
2.822

> <Coulomb>
6.637

> <VdW>
0.785

> <VdW6>
-5.216

> <VdW12>
6.001

> <Bond>
0.080

> <Angle>
2.678

> <Pdih>
0.064

> <Idih>
0.000

> <Tether>
0.000

$$$$
VeraChem MOL file


 17 16  0  0  0  0  0  0  0  0999 V2000     
   20.4691   20.6346   24.8885 C   0  0  0  0  0  0  0  0  0  0  0  0
   19.6515   20.9500   25.7309 O   0  5  0  0  0  0  0  0  0  0  0  0
   21.6175   21.0365   24.8994 O   0  0  0  0  0  0  0  0  0  0  0  0
   20.0228   19.7145   23.8076 C   0  0  0  0  0  0  0  0  0  0  0  0
   18.9849   19.3929   23.8566 H   0  0  0  0  0  0  0  0  0  0  0  0
   20.8235   19.2825   22.8070 C   0  0  0  0  0  0  0  0  0  0  0  0
   21.8643   19.6004   22.7470 H   0  0  0  0  0  0  0  0  0  0  0  0
   20.3610   18.3485   21.7102 C   0  0  0  0  0  0  0  0  0  0  0  0
   19.6801   17.5920   22.1235 H   0  0  0  0  0  0  0  0  0  0  0  0
   21.2235   17.8035   21.3033 H   0  0  0  0  0  0  0  0  0  0  0  0
   19.6557   19.1195   20.5758 C   0  0  0  0  0  0  0  0  0  0  0  0
   18.7900   19.6620   20.9806 H   0  0  0  0  0  0  0  0  0  0  0  0
   20.3394   19.8741   20.1627 H   0  0  0  0  0  0  0  0  0  0  0  0
   19.1895   18.1755   19.4493 C   0  0  0  0  0  0  0  0  0  0  0  0
   20.0409   17.6434   19.0050 H   0  0  0  0  0  0  0  0  0  0  0  0
   18.4798   17.4295   19.8304 H   0  0  0  0  0  0  0  0  0  0  0  0
   18.6904   18.7416   18.6521 H   0  0  0  0  0  0  0  0  0  0  0  0
  1  2  1  0  0  0  0
  1  3  2  0  0  0  0
  1  4  1  0  0  0  0
  4  5  1  0  0  0  0
  4  6  2  0  0  0  0
  6  7  1  0  0  0  0
  6  8  1  0  0  0  0
  8  9  1  0  0  0  0
  8 10  1  0  0  0  0
  8 11  1  0  0  0  0
 11 12  1  0  0  0  0
 11 13  1  0  0  0  0
 11 14  1  0  0  0  0
 14 15  1  0  0  0  0
 14 16  1  0  0  0  0
 14 17  1  0  0  0  0
M  END
> <VConfSearch Rank>
529

> <Conf_Id>
36

> <Delta U+W>
0.000

> <U+W>
-53.409

> <U>
9.048

> <W>
-62.457

> <W(PB)>
-64.540

> <W(SA)>
2.084

> <Valence>
2.652

> <Coulomb>
5.578

> <VdW>
0.818

> <VdW6>
-4.534

> <VdW12>
5.352

> <Bond>
0.063

> <Angle>
2.579

> <Pdih>
0.010

> <Idih>
0.000

> <Tether>
0.000

$$$$
VeraChem MOL file


 17 16  0  0  0  0  0  0  0  0999 V2000     
   22.5521   20.5462   23.5944 C   0  0  0  0  0  0  0  0  0  0  0  0
   22.6631   21.6763   23.1575 O   0  5  0  0  0  0  0  0  0  0  0  0
   23.3736   20.0411   24.3344 O   0  0  0  0  0  0  0  0  0  0  0  0
   21.3667   19.7275   23.2221 C   0  0  0  0  0  0  0  0  0  0  0  0
   21.3287   18.7269   23.6467 H   0  0  0  0  0  0  0  0  0  0  0  0
   20.3771   20.1604   22.4082 C   0  0  0  0  0  0  0  0  0  0  0  0
   20.4063   21.1603   21.9755 H   0  0  0  0  0  0  0  0  0  0  0  0
   19.1758   19.3206   22.0329 C   0  0  0  0  0  0  0  0  0  0  0  0
   18.3380   19.9773   21.7624 H   0  0  0  0  0  0  0  0  0  0  0  0
   18.8442   18.7316   22.8989 H   0  0  0  0  0  0  0  0  0  0  0  0
   19.4948   18.3786   20.8540 C   0  0  0  0  0  0  0  0  0  0  0  0
   19.8243   18.9702   19.9885 H   0  0  0  0  0  0  0  0  0  0  0  0
   20.3303   17.7181   21.1246 H   0  0  0  0  0  0  0  0  0  0  0  0
   18.2725   17.5256   20.4593 C   0  0  0  0  0  0  0  0  0  0  0  0
   17.4316   18.1618   20.1535 H   0  0  0  0  0  0  0  0  0  0  0  0
   18.5185   16.8625   19.6198 H   0  0  0  0  0  0  0  0  0  0  0  0
   17.9420   16.9006   21.2993 H   0  0  0  0  0  0  0  0  0  0  0  0
  1  2  1  0  0  0  0
  1  3  2  0  0  0  0
  1  4  1  0  0  0  0
  4  5  1  0  0  0  0
  4  6  2  0  0  0  0
  6  7  1  0  0  0  0
  6  8  1  0  0  0  0
  8  9  1  0  0  0  0
  8 10  1  0  0  0  0
  8 11  1  0  0  0  0
 11 12  1  0  0  0  0
 11 13  1  0  0  0  0
 11 14  1  0  0  0  0
 14 15  1  0  0  0  0
 14 16  1  0  0  0  0
 14 17  1  0  0  0  0
M  END
> <VConfSearch Rank>
530

> <Conf_Id>
1

> <Delta U+W>
0.030

> <U+W>
-53.378

> <U>
9.048

> <W>
-62.426

> <W(PB)>
-64.506

> <W(SA)>
2.080

> <Valence>
2.652

> <Coulomb>
5.578

> <VdW>
0.818

> <VdW6>
-4.535

> <VdW12>
5.352

> <Bond>
0.063

> <Angle>
2.579

> <Pdih>
0.010

> <Idih>
0.000

> <Tether>
0.000

$$$$
VeraChem MOL file


 17 16  0  0  0  0  0  0  0  0999 V2000     
   19.4151   21.5212   23.8440 C   0  0  0  0  0  0  0  0  0  0  0  0
   20.3762   21.4868   24.5893 O   0  5  0  0  0  0  0  0  0  0  0  0
   18.6947   22.4949   23.7408 O   0  0  0  0  0  0  0  0  0  0  0  0
   19.0844   20.3306   23.0150 C   0  0  0  0  0  0  0  0  0  0  0  0
   18.2129   20.4273   22.3717 H   0  0  0  0  0  0  0  0  0  0  0  0
   19.7980   19.1819   23.0274 C   0  0  0  0  0  0  0  0  0  0  0  0
   20.6750   19.0754   23.6656 H   0  0  0  0  0  0  0  0  0  0  0  0
   19.4577   17.9755   22.1779 C   0  0  0  0  0  0  0  0  0  0  0  0
   18.3691   17.8297   22.1646 H   0  0  0  0  0  0  0  0  0  0  0  0
   19.8825   17.0692   22.6300 H   0  0  0  0  0  0  0  0  0  0  0  0
   19.9673   18.1161   20.7266 C   0  0  0  0  0  0  0  0  0  0  0  0
   19.6024   17.2660   20.1339 H   0  0  0  0  0  0  0  0  0  0  0  0
   19.5430   19.0215   20.2711 H   0  0  0  0  0  0  0  0  0  0  0  0
   21.5079   18.1651   20.6429 C   0  0  0  0  0  0  0  0  0  0  0  0
   21.9539   17.2630   21.0816 H   0  0  0  0  0  0  0  0  0  0  0  0
   21.8356   18.2311   19.5974 H   0  0  0  0  0  0  0  0  0  0  0  0
   21.9059   19.0384   21.1760 H   0  0  0  0  0  0  0  0  0  0  0  0
  1  2  1  0  0  0  0
  1  3  2  0  0  0  0
  1  4  1  0  0  0  0
  4  5  1  0  0  0  0
  4  6  2  0  0  0  0
  6  7  1  0  0  0  0
  6  8  1  0  0  0  0
  8  9  1  0  0  0  0
  8 10  1  0  0  0  0
  8 11  1  0  0  0  0
 11 12  1  0  0  0  0
 11 13  1  0  0  0  0
 11 14  1  0  0  0  0
 14 15  1  0  0  0  0
 14 16  1  0  0  0  0
 14 17  1  0  0  0  0
M  END
> <VConfSearch Rank>
531

> <Conf_Id>
3

> <Delta U+W>
0.531

> <U+W>
-52.878

> <U>
10.067

> <W>
-62.945

> <W(PB)>
-64.982

> <W(SA)>
2.037

> <Valence>
2.779

> <Coulomb>
6.474

> <VdW>
0.815

> <VdW6>
-5.088

> <VdW12>
5.902

> <Bond>
0.078

> <Angle>
2.651

> <Pdih>
0.050

> <Idih>
0.000

> <Tether>
0.000

$$$$
VeraChem MOL file


 17 16  0  0  0  0  0  0  0  0999 V2000     
   21.8167   16.8951   23.0117 C   0  0  0  0  0  0  0  0  0  0  0  0
   22.7210   16.9331   23.8232 O   0  5  0  0  0  0  0  0  0  0  0  0
   21.7258   16.0266   22.1645 O   0  0  0  0  0  0  0  0  0  0  0  0
   20.7866   17.9667   23.0798 C   0  0  0  0  0  0  0  0  0  0  0  0
   20.9279   18.7109   23.8602 H   0  0  0  0  0  0  0  0  0  0  0  0
   19.7290   18.0499   22.2406 C   0  0  0  0  0  0  0  0  0  0  0  0
   19.5820   17.3105   21.4537 H   0  0  0  0  0  0  0  0  0  0  0  0
   18.6835   19.1436   22.3108 C   0  0  0  0  0  0  0  0  0  0  0  0
   18.7213   19.6525   23.2836 H   0  0  0  0  0  0  0  0  0  0  0  0
   17.6856   18.6903   22.2419 H   0  0  0  0  0  0  0  0  0  0  0  0
   18.8422   20.1798   21.1766 C   0  0  0  0  0  0  0  0  0  0  0  0
   18.8072   19.6712   20.2032 H   0  0  0  0  0  0  0  0  0  0  0  0
   17.9884   20.8709   21.2004 H   0  0  0  0  0  0  0  0  0  0  0  0
   20.1498   20.9918   21.2927 C   0  0  0  0  0  0  0  0  0  0  0  0
   21.0294   20.3405   21.2081 H   0  0  0  0  0  0  0  0  0  0  0  0
   20.2098   21.7431   20.4947 H   0  0  0  0  0  0  0  0  0  0  0  0
   20.2026   21.5152   22.2562 H   0  0  0  0  0  0  0  0  0  0  0  0
  1  2  1  0  0  0  0
  1  3  2  0  0  0  0
  1  4  1  0  0  0  0
  4  5  1  0  0  0  0
  4  6  2  0  0  0  0
  6  7  1  0  0  0  0
  6  8  1  0  0  0  0
  8  9  1  0  0  0  0
  8 10  1  0  0  0  0
  8 11  1  0  0  0  0
 11 12  1  0  0  0  0
 11 13  1  0  0  0  0
 11 14  1  0  0  0  0
 14 15  1  0  0  0  0
 14 16  1  0  0  0  0
 14 17  1  0  0  0  0
M  END
> <VConfSearch Rank>
532

> <Conf_Id>
45

> <Delta U+W>
0.562

> <U+W>
-52.846

> <U>
10.243

> <W>
-63.089

> <W(PB)>
-65.116

> <W(SA)>
2.026

> <Valence>
2.822

> <Coulomb>
6.637

> <VdW>
0.785

> <VdW6>
-5.216

> <VdW12>
6.001

> <Bond>
0.080

> <Angle>
2.678

> <Pdih>
0.064

> <Idih>
0.000

> <Tether>
0.000

$$$$
VeraChem MOL file


 17 16  0  0  0  0  0  0  0  0999 V2000     
   18.1633   19.0225   24.7456 C   0  0  0  0  0  0  0  0  0  0  0  0
   18.4657   19.3742   25.8692 O   0  5  0  0  0  0  0  0  0  0  0  0
   17.1795   18.3476   24.5069 O   0  0  0  0  0  0  0  0  0  0  0  0
   19.0498   19.4498   23.6294 C   0  0  0  0  0  0  0  0  0  0  0  0
   19.9114   20.0508   23.9111 H   0  0  0  0  0  0  0  0  0  0  0  0
   18.8360   19.1309   22.3326 C   0  0  0  0  0  0  0  0  0  0  0  0
   17.9772   18.5272   22.0396 H   0  0  0  0  0  0  0  0  0  0  0  0
   19.7437   19.5676   21.2037 C   0  0  0  0  0  0  0  0  0  0  0  0
   20.0968   20.5927   21.3809 H   0  0  0  0  0  0  0  0  0  0  0  0
   19.1764   19.5907   20.2635 H   0  0  0  0  0  0  0  0  0  0  0  0
   20.9512   18.6196   21.0548 C   0  0  0  0  0  0  0  0  0  0  0  0
   21.5224   18.5986   21.9934 H   0  0  0  0  0  0  0  0  0  0  0  0
   20.5956   17.5954   20.8757 H   0  0  0  0  0  0  0  0  0  0  0  0
   21.8766   19.0525   19.8999 C   0  0  0  0  0  0  0  0  0  0  0  0
   21.3380   19.0513   18.9432 H   0  0  0  0  0  0  0  0  0  0  0  0
   22.2710   20.0629   20.0703 H   0  0  0  0  0  0  0  0  0  0  0  0
   22.7291   18.3668   19.8096 H   0  0  0  0  0  0  0  0  0  0  0  0
  1  2  1  0  0  0  0
  1  3  2  0  0  0  0
  1  4  1  0  0  0  0
  4  5  1  0  0  0  0
  4  6  2  0  0  0  0
  6  7  1  0  0  0  0
  6  8  1  0  0  0  0
  8  9  1  0  0  0  0
  8 10  1  0  0  0  0
  8 11  1  0  0  0  0
 11 12  1  0  0  0  0
 11 13  1  0  0  0  0
 11 14  1  0  0  0  0
 14 15  1  0  0  0  0
 14 16  1  0  0  0  0
 14 17  1  0  0  0  0
M  END
> <VConfSearch Rank>
533

> <Conf_Id>
36

> <Delta U+W>
0.000

> <U+W>
-53.409

> <U>
9.048

> <W>
-62.457

> <W(PB)>
-64.540

> <W(SA)>
2.084

> <Valence>
2.652

> <Coulomb>
5.578

> <VdW>
0.818

> <VdW6>
-4.534

> <VdW12>
5.352

> <Bond>
0.063

> <Angle>
2.579

> <Pdih>
0.010

> <Idih>
0.000

> <Tether>
0.000

$$$$
VeraChem MOL file


 17 16  0  0  0  0  0  0  0  0999 V2000     
   19.5603   15.8552   22.7421 C   0  0  0  0  0  0  0  0  0  0  0  0
   19.3839   15.2468   21.7032 O   0  5  0  0  0  0  0  0  0  0  0  0
   19.3751   15.3598   23.8366 O   0  0  0  0  0  0  0  0  0  0  0  0
   20.0243   17.2683   22.6965 C   0  0  0  0  0  0  0  0  0  0  0  0
   20.1623   17.7538   23.6599 H   0  0  0  0  0  0  0  0  0  0  0  0
   20.2687   17.9448   21.5513 C   0  0  0  0  0  0  0  0  0  0  0  0
   20.1317   17.4687   20.5805 H   0  0  0  0  0  0  0  0  0  0  0  0
   20.7386   19.3825   21.5137 C   0  0  0  0  0  0  0  0  0  0  0  0
   21.2764   19.5693   20.5743 H   0  0  0  0  0  0  0  0  0  0  0  0
   21.4557   19.5646   22.3257 H   0  0  0  0  0  0  0  0  0  0  0  0
   19.5549   20.3639   21.6347 C   0  0  0  0  0  0  0  0  0  0  0  0
   18.8402   20.1813   20.8202 H   0  0  0  0  0  0  0  0  0  0  0  0
   19.0183   20.1811   22.5760 H   0  0  0  0  0  0  0  0  0  0  0  0
   20.0247   21.8318   21.5879 C   0  0  0  0  0  0  0  0  0  0  0  0
   20.5375   22.0503   20.6420 H   0  0  0  0  0  0  0  0  0  0  0  0
   19.1695   22.5145   21.6753 H   0  0  0  0  0  0  0  0  0  0  0  0
   20.7173   22.0490   22.4117 H   0  0  0  0  0  0  0  0  0  0  0  0
  1  2  1  0  0  0  0
  1  3  2  0  0  0  0
  1  4  1  0  0  0  0
  4  5  1  0  0  0  0
  4  6  2  0  0  0  0
  6  7  1  0  0  0  0
  6  8  1  0  0  0  0
  8  9  1  0  0  0  0
  8 10  1  0  0  0  0
  8 11  1  0  0  0  0
 11 12  1  0  0  0  0
 11 13  1  0  0  0  0
 11 14  1  0  0  0  0
 14 15  1  0  0  0  0
 14 16  1  0  0  0  0
 14 17  1  0  0  0  0
M  END
> <VConfSearch Rank>
534

> <Conf_Id>
1

> <Delta U+W>
0.030

> <U+W>
-53.378

> <U>
9.048

> <W>
-62.426

> <W(PB)>
-64.506

> <W(SA)>
2.080

> <Valence>
2.652

> <Coulomb>
5.578

> <VdW>
0.818

> <VdW6>
-4.535

> <VdW12>
5.352

> <Bond>
0.063

> <Angle>
2.579

> <Pdih>
0.010

> <Idih>
0.000

> <Tether>
0.000

$$$$
VeraChem MOL file


 17 16  0  0  0  0  0  0  0  0999 V2000     
   18.3799   21.0289   20.3028 C   0  0  0  0  0  0  0  0  0  0  0  0
   17.7512   20.2371   19.6258 O   0  5  0  0  0  0  0  0  0  0  0  0
   18.0837   22.2048   20.3884 O   0  0  0  0  0  0  0  0  0  0  0  0
   19.5692   20.5624   21.0657 C   0  0  0  0  0  0  0  0  0  0  0  0
   20.0861   21.3206   21.6494 H   0  0  0  0  0  0  0  0  0  0  0  0
   20.0118   19.2845   21.0641 C   0  0  0  0  0  0  0  0  0  0  0  0
   19.4995   18.5161   20.4856 H   0  0  0  0  0  0  0  0  0  0  0  0
   21.2210   18.8162   21.8463 C   0  0  0  0  0  0  0  0  0  0  0  0
   22.0177   19.5692   21.7784 H   0  0  0  0  0  0  0  0  0  0  0  0
   21.6257   17.9006   21.3944 H   0  0  0  0  0  0  0  0  0  0  0  0
   20.8945   18.5572   23.3336 C   0  0  0  0  0  0  0  0  0  0  0  0
   21.8246   18.3241   23.8701 H   0  0  0  0  0  0  0  0  0  0  0  0
   20.4904   19.4720   23.7888 H   0  0  0  0  0  0  0  0  0  0  0  0
   19.8962   17.3958   23.5264 C   0  0  0  0  0  0  0  0  0  0  0  0
   20.2853   16.4669   23.0896 H   0  0  0  0  0  0  0  0  0  0  0  0
   19.7131   17.2176   24.5939 H   0  0  0  0  0  0  0  0  0  0  0  0
   18.9316   17.6198   23.0525 H   0  0  0  0  0  0  0  0  0  0  0  0
  1  2  1  0  0  0  0
  1  3  2  0  0  0  0
  1  4  1  0  0  0  0
  4  5  1  0  0  0  0
  4  6  2  0  0  0  0
  6  7  1  0  0  0  0
  6  8  1  0  0  0  0
  8  9  1  0  0  0  0
  8 10  1  0  0  0  0
  8 11  1  0  0  0  0
 11 12  1  0  0  0  0
 11 13  1  0  0  0  0
 11 14  1  0  0  0  0
 14 15  1  0  0  0  0
 14 16  1  0  0  0  0
 14 17  1  0  0  0  0
M  END
> <VConfSearch Rank>
535

> <Conf_Id>
3

> <Delta U+W>
0.531

> <U+W>
-52.878

> <U>
10.067

> <W>
-62.945

> <W(PB)>
-64.982

> <W(SA)>
2.037

> <Valence>
2.779

> <Coulomb>
6.474

> <VdW>
0.815

> <VdW6>
-5.088

> <VdW12>
5.902

> <Bond>
0.078

> <Angle>
2.651

> <Pdih>
0.050

> <Idih>
0.000

> <Tether>
0.000

$$$$
VeraChem MOL file


 17 16  0  0  0  0  0  0  0  0999 V2000     
   17.8740   21.2642   21.9766 C   0  0  0  0  0  0  0  0  0  0  0  0
   16.7883   21.2646   21.4297 O   0  5  0  0  0  0  0  0  0  0  0  0
   18.4566   22.2858   22.2888 O   0  0  0  0  0  0  0  0  0  0  0  0
   18.4957   19.9443   22.2692 C   0  0  0  0  0  0  0  0  0  0  0  0
   17.9220   19.0723   21.9641 H   0  0  0  0  0  0  0  0  0  0  0  0
   19.6982   19.7944   22.8700 C   0  0  0  0  0  0  0  0  0  0  0  0
   20.2812   20.6629   23.1756 H   0  0  0  0  0  0  0  0  0  0  0  0
   20.3297   18.4494   23.1642 C   0  0  0  0  0  0  0  0  0  0  0  0
   19.5774   17.6504   23.1157 H   0  0  0  0  0  0  0  0  0  0  0  0
   20.7091   18.4493   24.1947 H   0  0  0  0  0  0  0  0  0  0  0  0
   21.4935   18.1253   22.2020 C   0  0  0  0  0  0  0  0  0  0  0  0
   22.2453   18.9254   22.2479 H   0  0  0  0  0  0  0  0  0  0  0  0
   21.9923   17.2064   22.5395 H   0  0  0  0  0  0  0  0  0  0  0  0
   21.0235   17.9359   20.7439 C   0  0  0  0  0  0  0  0  0  0  0  0
   20.5761   18.8573   20.3491 H   0  0  0  0  0  0  0  0  0  0  0  0
   21.8693   17.6689   20.0973 H   0  0  0  0  0  0  0  0  0  0  0  0
   20.2764   17.1348   20.6733 H   0  0  0  0  0  0  0  0  0  0  0  0
  1  2  1  0  0  0  0
  1  3  2  0  0  0  0
  1  4  1  0  0  0  0
  4  5  1  0  0  0  0
  4  6  2  0  0  0  0
  6  7  1  0  0  0  0
  6  8  1  0  0  0  0
  8  9  1  0  0  0  0
  8 10  1  0  0  0  0
  8 11  1  0  0  0  0
 11 12  1  0  0  0  0
 11 13  1  0  0  0  0
 11 14  1  0  0  0  0
 14 15  1  0  0  0  0
 14 16  1  0  0  0  0
 14 17  1  0  0  0  0
M  END
> <VConfSearch Rank>
536

> <Conf_Id>
45

> <Delta U+W>
0.562

> <U+W>
-52.846

> <U>
10.243

> <W>
-63.089

> <W(PB)>
-65.116

> <W(SA)>
2.026

> <Valence>
2.822

> <Coulomb>
6.637

> <VdW>
0.785

> <VdW6>
-5.216

> <VdW12>
6.001

> <Bond>
0.080

> <Angle>
2.678

> <Pdih>
0.064

> <Idih>
0.000

> <Tether>
0.000

$$$$
VeraChem MOL file


 17 16  0  0  0  0  0  0  0  0999 V2000     
   19.7022   16.9931   19.3098 C   0  0  0  0  0  0  0  0  0  0  0  0
   18.8611   16.1402   19.1030 O   0  5  0  0  0  0  0  0  0  0  0  0
   20.7412   17.0626   18.6805 O   0  0  0  0  0  0  0  0  0  0  0  0
   19.4257   17.9852   20.3838 C   0  0  0  0  0  0  0  0  0  0  0  0
   18.4798   17.8667   20.9073 H   0  0  0  0  0  0  0  0  0  0  0  0
   20.2711   18.9853   20.7218 C   0  0  0  0  0  0  0  0  0  0  0  0
   21.2225   19.1117   20.2055 H   0  0  0  0  0  0  0  0  0  0  0  0
   19.9833   19.9889   21.8169 C   0  0  0  0  0  0  0  0  0  0  0  0
   18.9187   20.2597   21.8078 H   0  0  0  0  0  0  0  0  0  0  0  0
   20.5427   20.9142   21.6241 H   0  0  0  0  0  0  0  0  0  0  0  0
   20.3671   19.4331   23.2035 C   0  0  0  0  0  0  0  0  0  0  0  0
   19.8050   18.5094   23.3997 H   0  0  0  0  0  0  0  0  0  0  0  0
   21.4327   19.1648   23.2108 H   0  0  0  0  0  0  0  0  0  0  0  0
   20.0856   20.4537   24.3244 C   0  0  0  0  0  0  0  0  0  0  0  0
   20.6605   21.3761   24.1695 H   0  0  0  0  0  0  0  0  0  0  0  0
   19.0199   20.7155   24.3587 H   0  0  0  0  0  0  0  0  0  0  0  0
   20.3646   20.0408   25.3025 H   0  0  0  0  0  0  0  0  0  0  0  0
  1  2  1  0  0  0  0
  1  3  2  0  0  0  0
  1  4  1  0  0  0  0
  4  5  1  0  0  0  0
  4  6  2  0  0  0  0
  6  7  1  0  0  0  0
  6  8  1  0  0  0  0
  8  9  1  0  0  0  0
  8 10  1  0  0  0  0
  8 11  1  0  0  0  0
 11 12  1  0  0  0  0
 11 13  1  0  0  0  0
 11 14  1  0  0  0  0
 14 15  1  0  0  0  0
 14 16  1  0  0  0  0
 14 17  1  0  0  0  0
M  END
> <VConfSearch Rank>
537

> <Conf_Id>
36

> <Delta U+W>
0.000

> <U+W>
-53.409

> <U>
9.048

> <W>
-62.457

> <W(PB)>
-64.540

> <W(SA)>
2.084

> <Valence>
2.652

> <Coulomb>
5.578

> <VdW>
0.818

> <VdW6>
-4.534

> <VdW12>
5.352

> <Bond>
0.063

> <Angle>
2.579

> <Pdih>
0.010

> <Idih>
0.000

> <Tether>
0.000

$$$$
VeraChem MOL file


 17 16  0  0  0  0  0  0  0  0999 V2000     
   22.8299   20.9496   21.8594 C   0  0  0  0  0  0  0  0  0  0  0  0
   23.4985   20.5488   20.9252 O   0  5  0  0  0  0  0  0  0  0  0  0
   23.2590   21.7209   22.6953 O   0  0  0  0  0  0  0  0  0  0  0  0
   21.4219   20.4909   22.0057 C   0  0  0  0  0  0  0  0  0  0  0  0
   20.8803   20.8868   22.8618 H   0  0  0  0  0  0  0  0  0  0  0  0
   20.8156   19.6346   21.1523 C   0  0  0  0  0  0  0  0  0  0  0  0
   21.3497   19.2302   20.2926 H   0  0  0  0  0  0  0  0  0  0  0  0
   19.3838   19.1716   21.3093 C   0  0  0  0  0  0  0  0  0  0  0  0
   18.9848   18.8718   20.3309 H   0  0  0  0  0  0  0  0  0  0  0  0
   18.7569   20.0022   21.6613 H   0  0  0  0  0  0  0  0  0  0  0  0
   19.2806   17.9883   22.2933 C   0  0  0  0  0  0  0  0  0  0  0  0
   19.9067   17.1580   21.9380 H   0  0  0  0  0  0  0  0  0  0  0  0
   19.6757   18.2878   23.2740 H   0  0  0  0  0  0  0  0  0  0  0  0
   17.8252   17.5043   22.4518 C   0  0  0  0  0  0  0  0  0  0  0  0
   17.4157   17.1687   21.4900 H   0  0  0  0  0  0  0  0  0  0  0  0
   17.7718   16.6629   23.1549 H   0  0  0  0  0  0  0  0  0  0  0  0
   17.1836   18.3082   22.8360 H   0  0  0  0  0  0  0  0  0  0  0  0
  1  2  1  0  0  0  0
  1  3  2  0  0  0  0
  1  4  1  0  0  0  0
  4  5  1  0  0  0  0
  4  6  2  0  0  0  0
  6  7  1  0  0  0  0
  6  8  1  0  0  0  0
  8  9  1  0  0  0  0
  8 10  1  0  0  0  0
  8 11  1  0  0  0  0
 11 12  1  0  0  0  0
 11 13  1  0  0  0  0
 11 14  1  0  0  0  0
 14 15  1  0  0  0  0
 14 16  1  0  0  0  0
 14 17  1  0  0  0  0
M  END
> <VConfSearch Rank>
538

> <Conf_Id>
1

> <Delta U+W>
0.030

> <U+W>
-53.378

> <U>
9.048

> <W>
-62.426

> <W(PB)>
-64.506

> <W(SA)>
2.080

> <Valence>
2.652

> <Coulomb>
5.578

> <VdW>
0.818

> <VdW6>
-4.535

> <VdW12>
5.352

> <Bond>
0.063

> <Angle>
2.579

> <Pdih>
0.010

> <Idih>
0.000

> <Tether>
0.000

$$$$
VeraChem MOL file


 17 16  0  0  0  0  0  0  0  0999 V2000     
   22.3724   20.5737   20.7302 C   0  0  0  0  0  0  0  0  0  0  0  0
   22.8733   21.1005   21.7059 O   0  5  0  0  0  0  0  0  0  0  0  0
   22.9494   20.4740   19.6649 O   0  0  0  0  0  0  0  0  0  0  0  0
   20.9929   20.0228   20.8189 C   0  0  0  0  0  0  0  0  0  0  0  0
   20.6047   19.5665   19.9113 H   0  0  0  0  0  0  0  0  0  0  0  0
   20.2360   20.0629   21.9389 C   0  0  0  0  0  0  0  0  0  0  0  0
   20.6164   20.5147   22.8548 H   0  0  0  0  0  0  0  0  0  0  0  0
   18.8341   19.4966   22.0228 C   0  0  0  0  0  0  0  0  0  0  0  0
   18.2864   19.7311   21.1000 H   0  0  0  0  0  0  0  0  0  0  0  0
   18.2831   19.9843   22.8382 H   0  0  0  0  0  0  0  0  0  0  0  0
   18.8301   17.9673   22.2393 C   0  0  0  0  0  0  0  0  0  0  0  0
   17.7960   17.5998   22.1863 H   0  0  0  0  0  0  0  0  0  0  0  0
   19.3797   17.4764   21.4242 H   0  0  0  0  0  0  0  0  0  0  0  0
   19.4411   17.5606   23.5971 C   0  0  0  0  0  0  0  0  0  0  0  0
   18.8990   18.0302   24.4282 H   0  0  0  0  0  0  0  0  0  0  0  0
   19.3916   16.4723   23.7321 H   0  0  0  0  0  0  0  0  0  0  0  0
   20.4953   17.8600   23.6627 H   0  0  0  0  0  0  0  0  0  0  0  0
  1  2  1  0  0  0  0
  1  3  2  0  0  0  0
  1  4  1  0  0  0  0
  4  5  1  0  0  0  0
  4  6  2  0  0  0  0
  6  7  1  0  0  0  0
  6  8  1  0  0  0  0
  8  9  1  0  0  0  0
  8 10  1  0  0  0  0
  8 11  1  0  0  0  0
 11 12  1  0  0  0  0
 11 13  1  0  0  0  0
 11 14  1  0  0  0  0
 14 15  1  0  0  0  0
 14 16  1  0  0  0  0
 14 17  1  0  0  0  0
M  END
> <VConfSearch Rank>
539

> <Conf_Id>
3

> <Delta U+W>
0.531

> <U+W>
-52.878

> <U>
10.067

> <W>
-62.945

> <W(PB)>
-64.982

> <W(SA)>
2.037

> <Valence>
2.779

> <Coulomb>
6.474

> <VdW>
0.815

> <VdW6>
-5.088

> <VdW12>
5.902

> <Bond>
0.078

> <Angle>
2.651

> <Pdih>
0.050

> <Idih>
0.000

> <Tether>
0.000

$$$$
VeraChem MOL file


 17 16  0  0  0  0  0  0  0  0999 V2000     
   19.4310   22.0658   22.2226 C   0  0  0  0  0  0  0  0  0  0  0  0
   18.7551   22.6908   23.0165 O   0  5  0  0  0  0  0  0  0  0  0  0
   19.7248   22.4960   21.1230 O   0  0  0  0  0  0  0  0  0  0  0  0
   19.9107   20.7199   22.6379 C   0  0  0  0  0  0  0  0  0  0  0  0
   19.6122   20.3966   23.6325 H   0  0  0  0  0  0  0  0  0  0  0  0
   20.6672   19.9153   21.8569 C   0  0  0  0  0  0  0  0  0  0  0  0
   20.9676   20.2300   20.8578 H   0  0  0  0  0  0  0  0  0  0  0  0
   21.1517   18.5445   22.2816 C   0  0  0  0  0  0  0  0  0  0  0  0
   21.0784   18.4293   23.3716 H   0  0  0  0  0  0  0  0  0  0  0  0
   22.2176   18.4490   22.0355 H   0  0  0  0  0  0  0  0  0  0  0  0
   20.3732   17.4063   21.5861 C   0  0  0  0  0  0  0  0  0  0  0  0
   20.4438   17.5223   20.4956 H   0  0  0  0  0  0  0  0  0  0  0  0
   20.8476   16.4459   21.8308 H   0  0  0  0  0  0  0  0  0  0  0  0
   18.8895   17.3565   22.0091 C   0  0  0  0  0  0  0  0  0  0  0  0
   18.3647   18.2769   21.7221 H   0  0  0  0  0  0  0  0  0  0  0  0
   18.3785   16.5135   21.5264 H   0  0  0  0  0  0  0  0  0  0  0  0
   18.7952   17.2331   23.0958 H   0  0  0  0  0  0  0  0  0  0  0  0
  1  2  1  0  0  0  0
  1  3  2  0  0  0  0
  1  4  1  0  0  0  0
  4  5  1  0  0  0  0
  4  6  2  0  0  0  0
  6  7  1  0  0  0  0
  6  8  1  0  0  0  0
  8  9  1  0  0  0  0
  8 10  1  0  0  0  0
  8 11  1  0  0  0  0
 11 12  1  0  0  0  0
 11 13  1  0  0  0  0
 11 14  1  0  0  0  0
 14 15  1  0  0  0  0
 14 16  1  0  0  0  0
 14 17  1  0  0  0  0
M  END
> <VConfSearch Rank>
540

> <Conf_Id>
45

> <Delta U+W>
0.562

> <U+W>
-52.846

> <U>
10.243

> <W>
-63.089

> <W(PB)>
-65.116

> <W(SA)>
2.026

> <Valence>
2.822

> <Coulomb>
6.637

> <VdW>
0.785

> <VdW6>
-5.216

> <VdW12>
6.001

> <Bond>
0.080

> <Angle>
2.678

> <Pdih>
0.064

> <Idih>
0.000

> <Tether>
0.000

$$$$
VeraChem MOL file


 17 16  0  0  0  0  0  0  0  0999 V2000     
   21.3565   21.4060   19.8440 C   0  0  0  0  0  0  0  0  0  0  0  0
   21.7356   21.2764   18.6963 O   0  5  0  0  0  0  0  0  0  0  0  0
   21.6271   22.3785   20.5233 O   0  0  0  0  0  0  0  0  0  0  0  0
   20.5252   20.3150   20.4209 C   0  0  0  0  0  0  0  0  0  0  0  0
   20.3202   19.4751   19.7610 H   0  0  0  0  0  0  0  0  0  0  0  0
   20.0371   20.3258   21.6821 C   0  0  0  0  0  0  0  0  0  0  0  0
   20.2383   21.1612   22.3524 H   0  0  0  0  0  0  0  0  0  0  0  0
   19.1942   19.2110   22.2618 C   0  0  0  0  0  0  0  0  0  0  0  0
   18.5063   18.8240   21.4977 H   0  0  0  0  0  0  0  0  0  0  0  0
   18.5689   19.6067   23.0735 H   0  0  0  0  0  0  0  0  0  0  0  0
   20.0732   18.0635   22.7999 C   0  0  0  0  0  0  0  0  0  0  0  0
   20.6965   17.6637   21.9880 H   0  0  0  0  0  0  0  0  0  0  0  0
   20.7589   18.4527   23.5654 H   0  0  0  0  0  0  0  0  0  0  0  0
   19.2218   16.9273   23.4012 C   0  0  0  0  0  0  0  0  0  0  0  0
   18.6116   17.2936   24.2372 H   0  0  0  0  0  0  0  0  0  0  0  0
   18.5484   16.4996   22.6467 H   0  0  0  0  0  0  0  0  0  0  0  0
   19.8640   16.1208   23.7783 H   0  0  0  0  0  0  0  0  0  0  0  0
  1  2  1  0  0  0  0
  1  3  2  0  0  0  0
  1  4  1  0  0  0  0
  4  5  1  0  0  0  0
  4  6  2  0  0  0  0
  6  7  1  0  0  0  0
  6  8  1  0  0  0  0
  8  9  1  0  0  0  0
  8 10  1  0  0  0  0
  8 11  1  0  0  0  0
 11 12  1  0  0  0  0
 11 13  1  0  0  0  0
 11 14  1  0  0  0  0
 14 15  1  0  0  0  0
 14 16  1  0  0  0  0
 14 17  1  0  0  0  0
M  END
> <VConfSearch Rank>
541

> <Conf_Id>
36

> <Delta U+W>
0.000

> <U+W>
-53.409

> <U>
9.048

> <W>
-62.457

> <W(PB)>
-64.540

> <W(SA)>
2.084

> <Valence>
2.652

> <Coulomb>
5.578

> <VdW>
0.818

> <VdW6>
-4.534

> <VdW12>
5.352

> <Bond>
0.063

> <Angle>
2.579

> <Pdih>
0.010

> <Idih>
0.000

> <Tether>
0.000

$$$$
VeraChem MOL file


 17 16  0  0  0  0  0  0  0  0999 V2000     
   21.4813   21.8167   20.5690 C   0  0  0  0  0  0  0  0  0  0  0  0
   22.2371   22.2623   21.4119 O   0  5  0  0  0  0  0  0  0  0  0  0
   21.2010   22.4174   19.5501 O   0  0  0  0  0  0  0  0  0  0  0  0
   20.8615   20.4791   20.7712 C   0  0  0  0  0  0  0  0  0  0  0  0
   20.1963   20.1399   19.9804 H   0  0  0  0  0  0  0  0  0  0  0  0
   21.0823   19.7022   21.8560 C   0  0  0  0  0  0  0  0  0  0  0  0
   21.7452   20.0333   22.6552 H   0  0  0  0  0  0  0  0  0  0  0  0
   20.4464   18.3438   22.0548 C   0  0  0  0  0  0  0  0  0  0  0  0
   21.0737   17.7382   22.7228 H   0  0  0  0  0  0  0  0  0  0  0  0
   20.4005   17.8069   21.0974 H   0  0  0  0  0  0  0  0  0  0  0  0
   19.0290   18.4685   22.6501 C   0  0  0  0  0  0  0  0  0  0  0  0
   19.0778   19.0038   23.6086 H   0  0  0  0  0  0  0  0  0  0  0  0
   18.3989   19.0706   21.9809 H   0  0  0  0  0  0  0  0  0  0  0  0
   18.3775   17.0875   22.8644 C   0  0  0  0  0  0  0  0  0  0  0  0
   18.9718   16.4756   23.5558 H   0  0  0  0  0  0  0  0  0  0  0  0
   17.3707   17.1964   23.2882 H   0  0  0  0  0  0  0  0  0  0  0  0
   18.2884   16.5435   21.9149 H   0  0  0  0  0  0  0  0  0  0  0  0
  1  2  1  0  0  0  0
  1  3  2  0  0  0  0
  1  4  1  0  0  0  0
  4  5  1  0  0  0  0
  4  6  2  0  0  0  0
  6  7  1  0  0  0  0
  6  8  1  0  0  0  0
  8  9  1  0  0  0  0
  8 10  1  0  0  0  0
  8 11  1  0  0  0  0
 11 12  1  0  0  0  0
 11 13  1  0  0  0  0
 11 14  1  0  0  0  0
 14 15  1  0  0  0  0
 14 16  1  0  0  0  0
 14 17  1  0  0  0  0
M  END
> <VConfSearch Rank>
542

> <Conf_Id>
1

> <Delta U+W>
0.030

> <U+W>
-53.378

> <U>
9.048

> <W>
-62.426

> <W(PB)>
-64.506

> <W(SA)>
2.080

> <Valence>
2.652

> <Coulomb>
5.578

> <VdW>
0.818

> <VdW6>
-4.535

> <VdW12>
5.352

> <Bond>
0.063

> <Angle>
2.579

> <Pdih>
0.010

> <Idih>
0.000

> <Tether>
0.000

$$$$
VeraChem MOL file


 17 16  0  0  0  0  0  0  0  0999 V2000     
   21.5829   17.1196   20.2691 C   0  0  0  0  0  0  0  0  0  0  0  0
   21.5473   16.1206   20.9628 O   0  5  0  0  0  0  0  0  0  0  0  0
   21.8839   17.0949   19.0916 O   0  0  0  0  0  0  0  0  0  0  0  0
   21.2509   18.4416   20.8661 C   0  0  0  0  0  0  0  0  0  0  0  0
   21.3029   19.2934   20.1919 H   0  0  0  0  0  0  0  0  0  0  0  0
   20.8984   18.6171   22.1599 C   0  0  0  0  0  0  0  0  0  0  0  0
   20.8399   17.7702   22.8431 H   0  0  0  0  0  0  0  0  0  0  0  0
   20.5581   19.9653   22.7595 C   0  0  0  0  0  0  0  0  0  0  0  0
   21.2512   20.7253   22.3741 H   0  0  0  0  0  0  0  0  0  0  0  0
   20.7076   19.9381   23.8472 H   0  0  0  0  0  0  0  0  0  0  0  0
   19.1084   20.3979   22.4482 C   0  0  0  0  0  0  0  0  0  0  0  0
   18.9526   21.4219   22.8145 H   0  0  0  0  0  0  0  0  0  0  0  0
   18.9561   20.4272   21.3603 H   0  0  0  0  0  0  0  0  0  0  0  0
   18.0614   19.4660   23.0947 C   0  0  0  0  0  0  0  0  0  0  0  0
   18.1867   19.4310   24.1848 H   0  0  0  0  0  0  0  0  0  0  0  0
   17.0448   19.8211   22.8816 H   0  0  0  0  0  0  0  0  0  0  0  0
   18.1485   18.4428   22.7065 H   0  0  0  0  0  0  0  0  0  0  0  0
  1  2  1  0  0  0  0
  1  3  2  0  0  0  0
  1  4  1  0  0  0  0
  4  5  1  0  0  0  0
  4  6  2  0  0  0  0
  6  7  1  0  0  0  0
  6  8  1  0  0  0  0
  8  9  1  0  0  0  0
  8 10  1  0  0  0  0
  8 11  1  0  0  0  0
 11 12  1  0  0  0  0
 11 13  1  0  0  0  0
 11 14  1  0  0  0  0
 14 15  1  0  0  0  0
 14 16  1  0  0  0  0
 14 17  1  0  0  0  0
M  END
> <VConfSearch Rank>
543

> <Conf_Id>
3

> <Delta U+W>
0.531

> <U+W>
-52.878

> <U>
10.067

> <W>
-62.945

> <W(PB)>
-64.982

> <W(SA)>
2.037

> <Valence>
2.779

> <Coulomb>
6.474

> <VdW>
0.815

> <VdW6>
-5.088

> <VdW12>
5.902

> <Bond>
0.078

> <Angle>
2.651

> <Pdih>
0.050

> <Idih>
0.000

> <Tether>
0.000

$$$$
VeraChem MOL file


 17 16  0  0  0  0  0  0  0  0999 V2000     
   21.5826   17.4344   20.1356 C   0  0  0  0  0  0  0  0  0  0  0  0
   22.7011   16.9725   20.2521 O   0  5  0  0  0  0  0  0  0  0  0  0
   21.0465   17.6020   19.0563 O   0  0  0  0  0  0  0  0  0  0  0  0
   20.8567   17.8000   21.3820 C   0  0  0  0  0  0  0  0  0  0  0  0
   21.3931   17.6245   22.3116 H   0  0  0  0  0  0  0  0  0  0  0  0
   19.6102   18.3248   21.4017 C   0  0  0  0  0  0  0  0  0  0  0  0
   19.0671   18.5073   20.4747 H   0  0  0  0  0  0  0  0  0  0  0  0
   18.8749   18.6986   22.6721 C   0  0  0  0  0  0  0  0  0  0  0  0
   19.3385   18.2159   23.5432 H   0  0  0  0  0  0  0  0  0  0  0  0
   17.8485   18.3118   22.6190 H   0  0  0  0  0  0  0  0  0  0  0  0
   18.8236   20.2264   22.8917 C   0  0  0  0  0  0  0  0  0  0  0  0
   18.3624   20.7104   22.0196 H   0  0  0  0  0  0  0  0  0  0  0  0
   18.1742   20.4434   23.7510 H   0  0  0  0  0  0  0  0  0  0  0  0
   20.2181   20.8367   23.1486 C   0  0  0  0  0  0  0  0  0  0  0  0
   20.8778   20.6958   22.2826 H   0  0  0  0  0  0  0  0  0  0  0  0
   20.1386   21.9148   23.3388 H   0  0  0  0  0  0  0  0  0  0  0  0
   20.6949   20.3725   24.0216 H   0  0  0  0  0  0  0  0  0  0  0  0
  1  2  1  0  0  0  0
  1  3  2  0  0  0  0
  1  4  1  0  0  0  0
  4  5  1  0  0  0  0
  4  6  2  0  0  0  0
  6  7  1  0  0  0  0
  6  8  1  0  0  0  0
  8  9  1  0  0  0  0
  8 10  1  0  0  0  0
  8 11  1  0  0  0  0
 11 12  1  0  0  0  0
 11 13  1  0  0  0  0
 11 14  1  0  0  0  0
 14 15  1  0  0  0  0
 14 16  1  0  0  0  0
 14 17  1  0  0  0  0
M  END
> <VConfSearch Rank>
544

> <Conf_Id>
45

> <Delta U+W>
0.562

> <U+W>
-52.846

> <U>
10.243

> <W>
-63.089

> <W(PB)>
-65.116

> <W(SA)>
2.026

> <Valence>
2.822

> <Coulomb>
6.637

> <VdW>
0.785

> <VdW6>
-5.216

> <VdW12>
6.001

> <Bond>
0.080

> <Angle>
2.678

> <Pdih>
0.064

> <Idih>
0.000

> <Tether>
0.000

$$$$
VeraChem MOL file


 17 16  0  0  0  0  0  0  0  0999 V2000     
   22.9143   17.4879   22.3481 C   0  0  0  0  0  0  0  0  0  0  0  0
   23.1111   16.3469   22.7182 O   0  5  0  0  0  0  0  0  0  0  0  0
   23.7967   18.3232   22.2842 O   0  0  0  0  0  0  0  0  0  0  0  0
   21.5255   17.8550   21.9600 C   0  0  0  0  0  0  0  0  0  0  0  0
   20.7851   17.0623   22.0402 H   0  0  0  0  0  0  0  0  0  0  0  0
   21.1628   19.0854   21.5316 C   0  0  0  0  0  0  0  0  0  0  0  0
   21.8960   19.8876   21.4498 H   0  0  0  0  0  0  0  0  0  0  0  0
   19.7476   19.4511   21.1409 C   0  0  0  0  0  0  0  0  0  0  0  0
   19.2764   18.6133   20.6090 H   0  0  0  0  0  0  0  0  0  0  0  0
   19.7664   20.2958   20.4391 H   0  0  0  0  0  0  0  0  0  0  0  0
   18.9024   19.8248   22.3759 C   0  0  0  0  0  0  0  0  0  0  0  0
   18.8792   18.9791   23.0772 H   0  0  0  0  0  0  0  0  0  0  0  0
   19.3746   20.6642   22.9051 H   0  0  0  0  0  0  0  0  0  0  0  0
   17.4609   20.2080   21.9851 C   0  0  0  0  0  0  0  0  0  0  0  0
   17.4538   21.0725   21.3083 H   0  0  0  0  0  0  0  0  0  0  0  0
   16.9556   19.3737   21.4812 H   0  0  0  0  0  0  0  0  0  0  0  0
   16.8755   20.4703   22.8760 H   0  0  0  0  0  0  0  0  0  0  0  0
  1  2  1  0  0  0  0
  1  3  2  0  0  0  0
  1  4  1  0  0  0  0
  4  5  1  0  0  0  0
  4  6  2  0  0  0  0
  6  7  1  0  0  0  0
  6  8  1  0  0  0  0
  8  9  1  0  0  0  0
  8 10  1  0  0  0  0
  8 11  1  0  0  0  0
 11 12  1  0  0  0  0
 11 13  1  0  0  0  0
 11 14  1  0  0  0  0
 14 15  1  0  0  0  0
 14 16  1  0  0  0  0
 14 17  1  0  0  0  0
M  END
> <VConfSearch Rank>
545

> <Conf_Id>
36

> <Delta U+W>
0.000

> <U+W>
-53.409

> <U>
9.048

> <W>
-62.457

> <W(PB)>
-64.540

> <W(SA)>
2.084

> <Valence>
2.652

> <Coulomb>
5.578

> <VdW>
0.818

> <VdW6>
-4.534

> <VdW12>
5.352

> <Bond>
0.063

> <Angle>
2.579

> <Pdih>
0.010

> <Idih>
0.000

> <Tether>
0.000

$$$$
VeraChem MOL file


 17 16  0  0  0  0  0  0  0  0999 V2000     
   17.2662   17.6240   23.2052 C   0  0  0  0  0  0  0  0  0  0  0  0
   17.0469   18.1638   24.2734 O   0  5  0  0  0  0  0  0  0  0  0  0
   16.6935   16.6136   22.8464 O   0  0  0  0  0  0  0  0  0  0  0  0
   18.2744   18.2084   22.2798 C   0  0  0  0  0  0  0  0  0  0  0  0
   18.4221   17.6773   21.3423 H   0  0  0  0  0  0  0  0  0  0  0  0
   18.9860   19.3265   22.5491 C   0  0  0  0  0  0  0  0  0  0  0  0
   18.8475   19.8652   23.4864 H   0  0  0  0  0  0  0  0  0  0  0  0
   20.0109   19.9132   21.6032 C   0  0  0  0  0  0  0  0  0  0  0  0
   20.1214   20.9879   21.8013 H   0  0  0  0  0  0  0  0  0  0  0  0
   19.6608   19.8209   20.5661 H   0  0  0  0  0  0  0  0  0  0  0  0
   21.3789   19.2171   21.7548 C   0  0  0  0  0  0  0  0  0  0  0  0
   21.7279   19.3125   22.7924 H   0  0  0  0  0  0  0  0  0  0  0  0
   21.2708   18.1423   21.5530 H   0  0  0  0  0  0  0  0  0  0  0  0
   22.4316   19.8157   20.8004 C   0  0  0  0  0  0  0  0  0  0  0  0
   22.5825   20.8843   21.0021 H   0  0  0  0  0  0  0  0  0  0  0  0
   23.3974   19.3082   20.9226 H   0  0  0  0  0  0  0  0  0  0  0  0
   22.1207   19.7049   19.7533 H   0  0  0  0  0  0  0  0  0  0  0  0
  1  2  1  0  0  0  0
  1  3  2  0  0  0  0
  1  4  1  0  0  0  0
  4  5  1  0  0  0  0
  4  6  2  0  0  0  0
  6  7  1  0  0  0  0
  6  8  1  0  0  0  0
  8  9  1  0  0  0  0
  8 10  1  0  0  0  0
  8 11  1  0  0  0  0
 11 12  1  0  0  0  0
 11 13  1  0  0  0  0
 11 14  1  0  0  0  0
 14 15  1  0  0  0  0
 14 16  1  0  0  0  0
 14 17  1  0  0  0  0
M  END
> <VConfSearch Rank>
546

> <Conf_Id>
1

> <Delta U+W>
0.030

> <U+W>
-53.378

> <U>
9.048

> <W>
-62.426

> <W(PB)>
-64.506

> <W(SA)>
2.080

> <Valence>
2.652

> <Coulomb>
5.578

> <VdW>
0.818

> <VdW6>
-4.535

> <VdW12>
5.352

> <Bond>
0.063

> <Angle>
2.579

> <Pdih>
0.010

> <Idih>
0.000

> <Tether>
0.000

$$$$
VeraChem MOL file


 17 16  0  0  0  0  0  0  0  0999 V2000     
   20.5775   21.8754   23.2399 C   0  0  0  0  0  0  0  0  0  0  0  0
   20.3287   22.5780   22.2782 O   0  5  0  0  0  0  0  0  0  0  0  0
   20.6720   22.3131   24.3701 O   0  0  0  0  0  0  0  0  0  0  0  0
   20.7827   20.4140   23.0495 C   0  0  0  0  0  0  0  0  0  0  0  0
   21.0026   19.8443   23.9494 H   0  0  0  0  0  0  0  0  0  0  0  0
   20.7062   19.7921   21.8510 C   0  0  0  0  0  0  0  0  0  0  0  0
   20.4831   20.3527   20.9435 H   0  0  0  0  0  0  0  0  0  0  0  0
   20.9124   18.3035   21.6654 C   0  0  0  0  0  0  0  0  0  0  0  0
   21.7459   17.9657   22.2961 H   0  0  0  0  0  0  0  0  0  0  0  0
   21.2087   18.0944   20.6287 H   0  0  0  0  0  0  0  0  0  0  0  0
   19.6491   17.4870   22.0161 C   0  0  0  0  0  0  0  0  0  0  0  0
   19.8882   16.4158   21.9653 H   0  0  0  0  0  0  0  0  0  0  0  0
   19.3509   17.6931   23.0534 H   0  0  0  0  0  0  0  0  0  0  0  0
   18.4692   17.7861   21.0668 C   0  0  0  0  0  0  0  0  0  0  0  0
   18.7407   17.5749   20.0243 H   0  0  0  0  0  0  0  0  0  0  0  0
   17.6008   17.1656   21.3232 H   0  0  0  0  0  0  0  0  0  0  0  0
   18.1628   18.8381   21.1350 H   0  0  0  0  0  0  0  0  0  0  0  0
  1  2  1  0  0  0  0
  1  3  2  0  0  0  0
  1  4  1  0  0  0  0
  4  5  1  0  0  0  0
  4  6  2  0  0  0  0
  6  7  1  0  0  0  0
  6  8  1  0  0  0  0
  8  9  1  0  0  0  0
  8 10  1  0  0  0  0
  8 11  1  0  0  0  0
 11 12  1  0  0  0  0
 11 13  1  0  0  0  0
 11 14  1  0  0  0  0
 14 15  1  0  0  0  0
 14 16  1  0  0  0  0
 14 17  1  0  0  0  0
M  END
> <VConfSearch Rank>
547

> <Conf_Id>
3

> <Delta U+W>
0.531

> <U+W>
-52.878

> <U>
10.067

> <W>
-62.945

> <W(PB)>
-64.982

> <W(SA)>
2.037

> <Valence>
2.779

> <Coulomb>
6.474

> <VdW>
0.815

> <VdW6>
-5.088

> <VdW12>
5.902

> <Bond>
0.078

> <Angle>
2.651

> <Pdih>
0.050

> <Idih>
0.000

> <Tether>
0.000

$$$$
VeraChem MOL file


 17 16  0  0  0  0  0  0  0  0999 V2000     
   18.8819   19.5093   24.8607 C   0  0  0  0  0  0  0  0  0  0  0  0
   18.4167   18.6979   25.6372 O   0  5  0  0  0  0  0  0  0  0  0  0
   18.6588   20.7028   24.9403 O   0  0  0  0  0  0  0  0  0  0  0  0
   19.7621   18.9965   23.7761 C   0  0  0  0  0  0  0  0  0  0  0  0
   19.9199   17.9206   23.7627 H   0  0  0  0  0  0  0  0  0  0  0  0
   20.3447   19.7835   22.8429 C   0  0  0  0  0  0  0  0  0  0  0  0
   20.1890   20.8620   22.8468 H   0  0  0  0  0  0  0  0  0  0  0  0
   21.2381   19.2581   21.7383 C   0  0  0  0  0  0  0  0  0  0  0  0
   21.5886   18.2441   21.9742 H   0  0  0  0  0  0  0  0  0  0  0  0
   22.1375   19.8852   21.6761 H   0  0  0  0  0  0  0  0  0  0  0  0
   20.5325   19.2568   20.3645 C   0  0  0  0  0  0  0  0  0  0  0  0
   20.1793   20.2703   20.1289 H   0  0  0  0  0  0  0  0  0  0  0  0
   21.2619   18.9901   19.5872 H   0  0  0  0  0  0  0  0  0  0  0  0
   19.3498   18.2666   20.3052 C   0  0  0  0  0  0  0  0  0  0  0  0
   18.5682   18.5394   21.0261 H   0  0  0  0  0  0  0  0  0  0  0  0
   18.8983   18.2640   19.3047 H   0  0  0  0  0  0  0  0  0  0  0  0
   19.6817   17.2447   20.5302 H   0  0  0  0  0  0  0  0  0  0  0  0
  1  2  1  0  0  0  0
  1  3  2  0  0  0  0
  1  4  1  0  0  0  0
  4  5  1  0  0  0  0
  4  6  2  0  0  0  0
  6  7  1  0  0  0  0
  6  8  1  0  0  0  0
  8  9  1  0  0  0  0
  8 10  1  0  0  0  0
  8 11  1  0  0  0  0
 11 12  1  0  0  0  0
 11 13  1  0  0  0  0
 11 14  1  0  0  0  0
 14 15  1  0  0  0  0
 14 16  1  0  0  0  0
 14 17  1  0  0  0  0
M  END
> <VConfSearch Rank>
548

> <Conf_Id>
45

> <Delta U+W>
0.562

> <U+W>
-52.846

> <U>
10.243

> <W>
-63.089

> <W(PB)>
-65.116

> <W(SA)>
2.026

> <Valence>
2.822

> <Coulomb>
6.637

> <VdW>
0.785

> <VdW6>
-5.216

> <VdW12>
6.001

> <Bond>
0.080

> <Angle>
2.678

> <Pdih>
0.064

> <Idih>
0.000

> <Tether>
0.000

$$$$
VeraChem MOL file


 17 16  0  0  0  0  0  0  0  0999 V2000     
   18.2186   20.4549   24.4514 C   0  0  0  0  0  0  0  0  0  0  0  0
   17.0814   20.8842   24.4527 O   0  5  0  0  0  0  0  0  0  0  0  0
   19.0009   20.6539   25.3618 O   0  0  0  0  0  0  0  0  0  0  0  0
   18.6493   19.6525   23.2747 C   0  0  0  0  0  0  0  0  0  0  0  0
   17.9022   19.5121   22.4968 H   0  0  0  0  0  0  0  0  0  0  0  0
   19.8831   19.1153   23.1394 C   0  0  0  0  0  0  0  0  0  0  0  0
   20.6400   19.2518   23.9116 H   0  0  0  0  0  0  0  0  0  0  0  0
   20.3138   18.3023   21.9383 C   0  0  0  0  0  0  0  0  0  0  0  0
   19.4863   17.6633   21.6010 H   0  0  0  0  0  0  0  0  0  0  0  0
   21.1323   17.6282   22.2248 H   0  0  0  0  0  0  0  0  0  0  0  0
   20.7749   19.2111   20.7805 C   0  0  0  0  0  0  0  0  0  0  0  0
   19.9556   19.8833   20.4899 H   0  0  0  0  0  0  0  0  0  0  0  0
   21.6038   19.8478   21.1197 H   0  0  0  0  0  0  0  0  0  0  0  0
   21.2245   18.3897   19.5556 C   0  0  0  0  0  0  0  0  0  0  0  0
   22.0650   17.7311   19.8111 H   0  0  0  0  0  0  0  0  0  0  0  0
   20.4033   17.7667   19.1775 H   0  0  0  0  0  0  0  0  0  0  0  0
   21.5485   19.0528   18.7430 H   0  0  0  0  0  0  0  0  0  0  0  0
  1  2  1  0  0  0  0
  1  3  2  0  0  0  0
  1  4  1  0  0  0  0
  4  5  1  0  0  0  0
  4  6  2  0  0  0  0
  6  7  1  0  0  0  0
  6  8  1  0  0  0  0
  8  9  1  0  0  0  0
  8 10  1  0  0  0  0
  8 11  1  0  0  0  0
 11 12  1  0  0  0  0
 11 13  1  0  0  0  0
 11 14  1  0  0  0  0
 14 15  1  0  0  0  0
 14 16  1  0  0  0  0
 14 17  1  0  0  0  0
M  END
> <VConfSearch Rank>
549

> <Conf_Id>
36

> <Delta U+W>
0.000

> <U+W>
-53.409

> <U>
9.048

> <W>
-62.457

> <W(PB)>
-64.540

> <W(SA)>
2.084

> <Valence>
2.652

> <Coulomb>
5.578

> <VdW>
0.818

> <VdW6>
-4.534

> <VdW12>
5.352

> <Bond>
0.063

> <Angle>
2.579

> <Pdih>
0.010

> <Idih>
0.000

> <Tether>
0.000

$$$$
VeraChem MOL file


 17 16  0  0  0  0  0  0  0  0999 V2000     
   19.5968   15.8380   22.6926 C   0  0  0  0  0  0  0  0  0  0  0  0
   20.1006   15.6701   23.7873 O   0  5  0  0  0  0  0  0  0  0  0  0
   19.2313   14.9187   21.9862 O   0  0  0  0  0  0  0  0  0  0  0  0
   19.4082   17.2202   22.1746 C   0  0  0  0  0  0  0  0  0  0  0  0
   18.9525   17.3001   21.1904 H   0  0  0  0  0  0  0  0  0  0  0  0
   19.7687   18.3344   22.8512 C   0  0  0  0  0  0  0  0  0  0  0  0
   20.2281   18.2657   23.8371 H   0  0  0  0  0  0  0  0  0  0  0  0
   19.5750   19.7364   22.3164 C   0  0  0  0  0  0  0  0  0  0  0  0
   19.5143   20.4444   23.1539 H   0  0  0  0  0  0  0  0  0  0  0  0
   18.6191   19.8049   21.7794 H   0  0  0  0  0  0  0  0  0  0  0  0
   20.7294   20.1444   21.3783 C   0  0  0  0  0  0  0  0  0  0  0  0
   21.6841   20.0773   21.9183 H   0  0  0  0  0  0  0  0  0  0  0  0
   20.7890   19.4394   20.5375 H   0  0  0  0  0  0  0  0  0  0  0  0
   20.5442   21.5760   20.8362 C   0  0  0  0  0  0  0  0  0  0  0  0
   20.5132   22.3057   21.6559 H   0  0  0  0  0  0  0  0  0  0  0  0
   21.3744   21.8482   20.1714 H   0  0  0  0  0  0  0  0  0  0  0  0
   19.6105   21.6620   20.2650 H   0  0  0  0  0  0  0  0  0  0  0  0
  1  2  1  0  0  0  0
  1  3  2  0  0  0  0
  1  4  1  0  0  0  0
  4  5  1  0  0  0  0
  4  6  2  0  0  0  0
  6  7  1  0  0  0  0
  6  8  1  0  0  0  0
  8  9  1  0  0  0  0
  8 10  1  0  0  0  0
  8 11  1  0  0  0  0
 11 12  1  0  0  0  0
 11 13  1  0  0  0  0
 11 14  1  0  0  0  0
 14 15  1  0  0  0  0
 14 16  1  0  0  0  0
 14 17  1  0  0  0  0
M  END
> <VConfSearch Rank>
550

> <Conf_Id>
1

> <Delta U+W>
0.030

> <U+W>
-53.378

> <U>
9.048

> <W>
-62.426

> <W(PB)>
-64.506

> <W(SA)>
2.080

> <Valence>
2.652

> <Coulomb>
5.578

> <VdW>
0.818

> <VdW6>
-4.535

> <VdW12>
5.352

> <Bond>
0.063

> <Angle>
2.579

> <Pdih>
0.010

> <Idih>
0.000

> <Tether>
0.000

$$$$
VeraChem MOL file


 17 16  0  0  0  0  0  0  0  0999 V2000     
   20.5174   16.6968   23.9297 C   0  0  0  0  0  0  0  0  0  0  0  0
   21.6654   16.4225   23.6340 O   0  5  0  0  0  0  0  0  0  0  0  0
   19.9777   16.2800   24.9361 O   0  0  0  0  0  0  0  0  0  0  0  0
   19.7175   17.5760   23.0346 C   0  0  0  0  0  0  0  0  0  0  0  0
   18.6991   17.7808   23.3567 H   0  0  0  0  0  0  0  0  0  0  0  0
   20.1893   18.1110   21.8856 C   0  0  0  0  0  0  0  0  0  0  0  0
   21.2092   17.9152   21.5553 H   0  0  0  0  0  0  0  0  0  0  0  0
   19.3704   19.0083   20.9816 C   0  0  0  0  0  0  0  0  0  0  0  0
   18.3444   18.6225   20.9112 H   0  0  0  0  0  0  0  0  0  0  0  0
   19.7780   18.9823   19.9620 H   0  0  0  0  0  0  0  0  0  0  0  0
   19.3289   20.4683   21.4840 C   0  0  0  0  0  0  0  0  0  0  0  0
   18.6395   21.0458   20.8530 H   0  0  0  0  0  0  0  0  0  0  0  0
   18.9204   20.4976   22.5036 H   0  0  0  0  0  0  0  0  0  0  0  0
   20.7179   21.1414   21.4608 C   0  0  0  0  0  0  0  0  0  0  0  0
   21.1406   21.1348   20.4477 H   0  0  0  0  0  0  0  0  0  0  0  0
   20.6461   22.1857   21.7914 H   0  0  0  0  0  0  0  0  0  0  0  0
   21.4196   20.6248   22.1286 H   0  0  0  0  0  0  0  0  0  0  0  0
  1  2  1  0  0  0  0
  1  3  2  0  0  0  0
  1  4  1  0  0  0  0
  4  5  1  0  0  0  0
  4  6  2  0  0  0  0
  6  7  1  0  0  0  0
  6  8  1  0  0  0  0
  8  9  1  0  0  0  0
  8 10  1  0  0  0  0
  8 11  1  0  0  0  0
 11 12  1  0  0  0  0
 11 13  1  0  0  0  0
 11 14  1  0  0  0  0
 14 15  1  0  0  0  0
 14 16  1  0  0  0  0
 14 17  1  0  0  0  0
M  END
> <VConfSearch Rank>
551

> <Conf_Id>
3

> <Delta U+W>
0.531

> <U+W>
-52.878

> <U>
10.067

> <W>
-62.945

> <W(PB)>
-64.982

> <W(SA)>
2.037

> <Valence>
2.779

> <Coulomb>
6.474

> <VdW>
0.815

> <VdW6>
-5.088

> <VdW12>
5.902

> <Bond>
0.078

> <Angle>
2.651

> <Pdih>
0.050

> <Idih>
0.000

> <Tether>
0.000

$$$$
VeraChem MOL file


 17 16  0  0  0  0  0  0  0  0999 V2000     
   19.2105   20.8423   19.7328 C   0  0  0  0  0  0  0  0  0  0  0  0
   18.5219   21.8438   19.7048 O   0  5  0  0  0  0  0  0  0  0  0  0
   19.4245   20.1603   18.7482 O   0  0  0  0  0  0  0  0  0  0  0  0
   19.8093   20.4562   21.0391 C   0  0  0  0  0  0  0  0  0  0  0  0
   19.5781   21.1089   21.8778 H   0  0  0  0  0  0  0  0  0  0  0  0
   20.5925   19.3679   21.2168 C   0  0  0  0  0  0  0  0  0  0  0  0
   20.8261   18.7066   20.3827 H   0  0  0  0  0  0  0  0  0  0  0  0
   21.1984   18.9759   22.5485 C   0  0  0  0  0  0  0  0  0  0  0  0
   21.1795   19.8241   23.2463 H   0  0  0  0  0  0  0  0  0  0  0  0
   22.2575   18.7258   22.4007 H   0  0  0  0  0  0  0  0  0  0  0  0
   20.4819   17.7646   23.1847 C   0  0  0  0  0  0  0  0  0  0  0  0
   20.4981   16.9165   22.4862 H   0  0  0  0  0  0  0  0  0  0  0  0
   21.0386   17.4469   24.0770 H   0  0  0  0  0  0  0  0  0  0  0  0
   19.0253   18.0801   23.5866 C   0  0  0  0  0  0  0  0  0  0  0  0
   18.4196   18.3401   22.7088 H   0  0  0  0  0  0  0  0  0  0  0  0
   18.5612   17.2106   24.0697 H   0  0  0  0  0  0  0  0  0  0  0  0
   18.9858   18.9209   24.2912 H   0  0  0  0  0  0  0  0  0  0  0  0
  1  2  1  0  0  0  0
  1  3  2  0  0  0  0
  1  4  1  0  0  0  0
  4  5  1  0  0  0  0
  4  6  2  0  0  0  0
  6  7  1  0  0  0  0
  6  8  1  0  0  0  0
  8  9  1  0  0  0  0
  8 10  1  0  0  0  0
  8 11  1  0  0  0  0
 11 12  1  0  0  0  0
 11 13  1  0  0  0  0
 11 14  1  0  0  0  0
 14 15  1  0  0  0  0
 14 16  1  0  0  0  0
 14 17  1  0  0  0  0
M  END
> <VConfSearch Rank>
552

> <Conf_Id>
45

> <Delta U+W>
0.562

> <U+W>
-52.846

> <U>
10.243

> <W>
-63.089

> <W(PB)>
-65.116

> <W(SA)>
2.026

> <Valence>
2.822

> <Coulomb>
6.637

> <VdW>
0.785

> <VdW6>
-5.216

> <VdW12>
6.001

> <Bond>
0.080

> <Angle>
2.678

> <Pdih>
0.064

> <Idih>
0.000

> <Tether>
0.000

$$$$
VeraChem MOL file


 17 16  0  0  0  0  0  0  0  0999 V2000     
   23.1307   19.8232   20.8957 C   0  0  0  0  0  0  0  0  0  0  0  0
   23.6054   19.7776   19.7775 O   0  5  0  0  0  0  0  0  0  0  0  0
   23.8116   19.9270   21.8987 O   0  0  0  0  0  0  0  0  0  0  0  0
   21.6496   19.7484   21.0174 C   0  0  0  0  0  0  0  0  0  0  0  0
   21.1007   19.6565   20.0830 H   0  0  0  0  0  0  0  0  0  0  0  0
   20.9873   19.7862   22.1959 C   0  0  0  0  0  0  0  0  0  0  0  0
   21.5275   19.8757   23.1382 H   0  0  0  0  0  0  0  0  0  0  0  0
   19.4807   19.7074   22.3111 C   0  0  0  0  0  0  0  0  0  0  0  0
   19.0115   20.2708   21.4930 H   0  0  0  0  0  0  0  0  0  0  0  0
   19.1577   20.1859   23.2455 H   0  0  0  0  0  0  0  0  0  0  0  0
   18.9908   18.2451   22.2840 C   0  0  0  0  0  0  0  0  0  0  0  0
   19.3096   17.7660   21.3478 H   0  0  0  0  0  0  0  0  0  0  0  0
   19.4599   17.6842   23.1044 H   0  0  0  0  0  0  0  0  0  0  0  0
   17.4567   18.1556   22.4104 C   0  0  0  0  0  0  0  0  0  0  0  0
   17.1136   18.5997   23.3541 H   0  0  0  0  0  0  0  0  0  0  0  0
   16.9630   18.6831   21.5837 H   0  0  0  0  0  0  0  0  0  0  0  0
   17.1273   17.1087   22.3891 H   0  0  0  0  0  0  0  0  0  0  0  0
  1  2  1  0  0  0  0
  1  3  2  0  0  0  0
  1  4  1  0  0  0  0
  4  5  1  0  0  0  0
  4  6  2  0  0  0  0
  6  7  1  0  0  0  0
  6  8  1  0  0  0  0
  8  9  1  0  0  0  0
  8 10  1  0  0  0  0
  8 11  1  0  0  0  0
 11 12  1  0  0  0  0
 11 13  1  0  0  0  0
 11 14  1  0  0  0  0
 14 15  1  0  0  0  0
 14 16  1  0  0  0  0
 14 17  1  0  0  0  0
M  END
> <VConfSearch Rank>
553

> <Conf_Id>
36

> <Delta U+W>
0.000

> <U+W>
-53.409

> <U>
9.048

> <W>
-62.457

> <W(PB)>
-64.540

> <W(SA)>
2.084

> <Valence>
2.652

> <Coulomb>
5.578

> <VdW>
0.818

> <VdW6>
-4.534

> <VdW12>
5.352

> <Bond>
0.063

> <Angle>
2.579

> <Pdih>
0.010

> <Idih>
0.000

> <Tether>
0.000

$$$$
VeraChem MOL file


 17 16  0  0  0  0  0  0  0  0999 V2000     
   19.5036   22.3847   21.3815 C   0  0  0  0  0  0  0  0  0  0  0  0
   20.5976   22.9172   21.3908 O   0  5  0  0  0  0  0  0  0  0  0  0
   18.4633   23.0136   21.3927 O   0  0  0  0  0  0  0  0  0  0  0  0
   19.4092   20.9000   21.3536 C   0  0  0  0  0  0  0  0  0  0  0  0
   18.4025   20.4885   21.3463 H   0  0  0  0  0  0  0  0  0  0  0  0
   20.4820   20.0767   21.3399 C   0  0  0  0  0  0  0  0  0  0  0  0
   21.4952   20.4782   21.3492 H   0  0  0  0  0  0  0  0  0  0  0  0
   20.3773   18.5675   21.3135 C   0  0  0  0  0  0  0  0  0  0  0  0
   21.2891   18.1432   20.8718 H   0  0  0  0  0  0  0  0  0  0  0  0
   19.5444   18.2601   20.6664 H   0  0  0  0  0  0  0  0  0  0  0  0
   20.1748   17.9934   22.7306 C   0  0  0  0  0  0  0  0  0  0  0  0
   21.0102   18.3003   23.3753 H   0  0  0  0  0  0  0  0  0  0  0  0
   19.2607   18.4138   23.1724 H   0  0  0  0  0  0  0  0  0  0  0  0
   20.0764   16.4547   22.7133 C   0  0  0  0  0  0  0  0  0  0  0  0
   20.9919   16.0069   22.3050 H   0  0  0  0  0  0  0  0  0  0  0  0
   19.9327   16.0649   23.7295 H   0  0  0  0  0  0  0  0  0  0  0  0
   19.2287   16.1221   22.0999 H   0  0  0  0  0  0  0  0  0  0  0  0
  1  2  1  0  0  0  0
  1  3  2  0  0  0  0
  1  4  1  0  0  0  0
  4  5  1  0  0  0  0
  4  6  2  0  0  0  0
  6  7  1  0  0  0  0
  6  8  1  0  0  0  0
  8  9  1  0  0  0  0
  8 10  1  0  0  0  0
  8 11  1  0  0  0  0
 11 12  1  0  0  0  0
 11 13  1  0  0  0  0
 11 14  1  0  0  0  0
 14 15  1  0  0  0  0
 14 16  1  0  0  0  0
 14 17  1  0  0  0  0
M  END
> <VConfSearch Rank>
554

> <Conf_Id>
1

> <Delta U+W>
0.030

> <U+W>
-53.378

> <U>
9.048

> <W>
-62.426

> <W(PB)>
-64.506

> <W(SA)>
2.080

> <Valence>
2.652

> <Coulomb>
5.578

> <VdW>
0.818

> <VdW6>
-4.535

> <VdW12>
5.352

> <Bond>
0.063

> <Angle>
2.579

> <Pdih>
0.010

> <Idih>
0.000

> <Tether>
0.000

$$$$
VeraChem MOL file


 17 16  0  0  0  0  0  0  0  0999 V2000     
   21.9960   19.9034   24.2677 C   0  0  0  0  0  0  0  0  0  0  0  0
   22.9585   20.2230   23.5954 O   0  5  0  0  0  0  0  0  0  0  0  0
   21.8815   20.2030   25.4403 O   0  0  0  0  0  0  0  0  0  0  0  0
   20.8999   19.1080   23.6513 C   0  0  0  0  0  0  0  0  0  0  0  0
   20.0701   18.8551   24.3072 H   0  0  0  0  0  0  0  0  0  0  0  0
   20.8943   18.7069   22.3598 C   0  0  0  0  0  0  0  0  0  0  0  0
   21.7189   18.9576   21.6929 H   0  0  0  0  0  0  0  0  0  0  0  0
   19.7731   17.9007   21.7383 C   0  0  0  0  0  0  0  0  0  0  0  0
   19.4313   17.1363   22.4492 H   0  0  0  0  0  0  0  0  0  0  0  0
   20.1471   17.3570   20.8604 H   0  0  0  0  0  0  0  0  0  0  0  0
   18.5734   18.7823   21.3272 C   0  0  0  0  0  0  0  0  0  0  0  0
   17.7543   18.1361   20.9827 H   0  0  0  0  0  0  0  0  0  0  0  0
   18.1962   19.3267   22.2039 H   0  0  0  0  0  0  0  0  0  0  0  0
   18.9311   19.7833   20.2079 C   0  0  0  0  0  0  0  0  0  0  0  0
   19.2991   19.2599   19.3159 H   0  0  0  0  0  0  0  0  0  0  0  0
   18.0492   20.3689   19.9177 H   0  0  0  0  0  0  0  0  0  0  0  0
   19.7075   20.4857   20.5380 H   0  0  0  0  0  0  0  0  0  0  0  0
  1  2  1  0  0  0  0
  1  3  2  0  0  0  0
  1  4  1  0  0  0  0
  4  5  1  0  0  0  0
  4  6  2  0  0  0  0
  6  7  1  0  0  0  0
  6  8  1  0  0  0  0
  8  9  1  0  0  0  0
  8 10  1  0  0  0  0
  8 11  1  0  0  0  0
 11 12  1  0  0  0  0
 11 13  1  0  0  0  0
 11 14  1  0  0  0  0
 14 15  1  0  0  0  0
 14 16  1  0  0  0  0
 14 17  1  0  0  0  0
M  END
> <VConfSearch Rank>
555

> <Conf_Id>
3

> <Delta U+W>
0.531

> <U+W>
-52.878

> <U>
10.067

> <W>
-62.945

> <W(PB)>
-64.982

> <W(SA)>
2.037

> <Valence>
2.779

> <Coulomb>
6.474

> <VdW>
0.815

> <VdW6>
-5.088

> <VdW12>
5.902

> <Bond>
0.078

> <Angle>
2.651

> <Pdih>
0.050

> <Idih>
0.000

> <Tether>
0.000

$$$$
VeraChem MOL file


 17 16  0  0  0  0  0  0  0  0999 V2000     
   19.7592   19.5105   19.0930 C   0  0  0  0  0  0  0  0  0  0  0  0
   20.6319   19.5198   18.2467 O   0  5  0  0  0  0  0  0  0  0  0  0
   18.6690   20.0234   18.9231 O   0  0  0  0  0  0  0  0  0  0  0  0
   20.0603   18.8333   20.3833 C   0  0  0  0  0  0  0  0  0  0  0  0
   21.0524   18.3962   20.4688 H   0  0  0  0  0  0  0  0  0  0  0  0
   19.1861   18.7488   21.4120 C   0  0  0  0  0  0  0  0  0  0  0  0
   18.1914   19.1872   21.3360 H   0  0  0  0  0  0  0  0  0  0  0  0
   19.4966   18.0611   22.7254 C   0  0  0  0  0  0  0  0  0  0  0  0
   20.3659   17.3982   22.6184 H   0  0  0  0  0  0  0  0  0  0  0  0
   18.6521   17.4151   23.0001 H   0  0  0  0  0  0  0  0  0  0  0  0
   19.7495   19.0681   23.8688 C   0  0  0  0  0  0  0  0  0  0  0  0
   18.8814   19.7334   23.9747 H   0  0  0  0  0  0  0  0  0  0  0  0
   19.8415   18.5191   24.8160 H   0  0  0  0  0  0  0  0  0  0  0  0
   21.0254   19.9085   23.6486 C   0  0  0  0  0  0  0  0  0  0  0  0
   20.9441   20.5221   22.7420 H   0  0  0  0  0  0  0  0  0  0  0  0
   21.1942   20.5836   24.4975 H   0  0  0  0  0  0  0  0  0  0  0  0
   21.9078   19.2634   23.5476 H   0  0  0  0  0  0  0  0  0  0  0  0
  1  2  1  0  0  0  0
  1  3  2  0  0  0  0
  1  4  1  0  0  0  0
  4  5  1  0  0  0  0
  4  6  2  0  0  0  0
  6  7  1  0  0  0  0
  6  8  1  0  0  0  0
  8  9  1  0  0  0  0
  8 10  1  0  0  0  0
  8 11  1  0  0  0  0
 11 12  1  0  0  0  0
 11 13  1  0  0  0  0
 11 14  1  0  0  0  0
 14 15  1  0  0  0  0
 14 16  1  0  0  0  0
 14 17  1  0  0  0  0
M  END
> <VConfSearch Rank>
556

> <Conf_Id>
45

> <Delta U+W>
0.562

> <U+W>
-52.846

> <U>
10.243

> <W>
-63.089

> <W(PB)>
-65.116

> <W(SA)>
2.026

> <Valence>
2.822

> <Coulomb>
6.637

> <VdW>
0.785

> <VdW6>
-5.216

> <VdW12>
6.001

> <Bond>
0.080

> <Angle>
2.678

> <Pdih>
0.064

> <Idih>
0.000

> <Tether>
0.000

$$$$
VeraChem MOL file


 17 16  0  0  0  0  0  0  0  0999 V2000     
   23.0250   17.6478   21.7541 C   0  0  0  0  0  0  0  0  0  0  0  0
   24.0994   18.1307   21.4538 O   0  5  0  0  0  0  0  0  0  0  0  0
   22.8397   16.4481   21.8359 O   0  0  0  0  0  0  0  0  0  0  0  0
   21.9030   18.5853   22.0306 C   0  0  0  0  0  0  0  0  0  0  0  0
   22.1357   19.6438   21.9399 H   0  0  0  0  0  0  0  0  0  0  0  0
   20.6564   18.1885   22.3735 C   0  0  0  0  0  0  0  0  0  0  0  0
   20.4117   17.1304   22.4649 H   0  0  0  0  0  0  0  0  0  0  0  0
   19.5202   19.1484   22.6509 C   0  0  0  0  0  0  0  0  0  0  0  0
   19.8956   20.0287   23.1904 H   0  0  0  0  0  0  0  0  0  0  0  0
   18.7852   18.6677   23.3105 H   0  0  0  0  0  0  0  0  0  0  0  0
   18.8292   19.5934   21.3457 C   0  0  0  0  0  0  0  0  0  0  0  0
   19.5624   20.0784   20.6864 H   0  0  0  0  0  0  0  0  0  0  0  0
   18.4529   18.7114   20.8090 H   0  0  0  0  0  0  0  0  0  0  0  0
   17.6638   20.5648   21.6206 C   0  0  0  0  0  0  0  0  0  0  0  0
   16.8998   20.0932   22.2526 H   0  0  0  0  0  0  0  0  0  0  0  0
   18.0189   21.4704   22.1297 H   0  0  0  0  0  0  0  0  0  0  0  0
   17.1850   20.8701   20.6810 H   0  0  0  0  0  0  0  0  0  0  0  0
  1  2  1  0  0  0  0
  1  3  2  0  0  0  0
  1  4  1  0  0  0  0
  4  5  1  0  0  0  0
  4  6  2  0  0  0  0
  6  7  1  0  0  0  0
  6  8  1  0  0  0  0
  8  9  1  0  0  0  0
  8 10  1  0  0  0  0
  8 11  1  0  0  0  0
 11 12  1  0  0  0  0
 11 13  1  0  0  0  0
 11 14  1  0  0  0  0
 14 15  1  0  0  0  0
 14 16  1  0  0  0  0
 14 17  1  0  0  0  0
M  END
> <VConfSearch Rank>
557

> <Conf_Id>
36

> <Delta U+W>
0.000

> <U+W>
-53.409

> <U>
9.048

> <W>
-62.457

> <W(PB)>
-64.540

> <W(SA)>
2.084

> <Valence>
2.652

> <Coulomb>
5.578

> <VdW>
0.818

> <VdW6>
-4.534

> <VdW12>
5.352

> <Bond>
0.063

> <Angle>
2.579

> <Pdih>
0.010

> <Idih>
0.000

> <Tether>
0.000

$$$$
VeraChem MOL file


 17 16  0  0  0  0  0  0  0  0999 V2000     
   19.8489   21.0477   19.1694 C   0  0  0  0  0  0  0  0  0  0  0  0
   19.5894   20.3173   18.2315 O   0  5  0  0  0  0  0  0  0  0  0  0
   20.1855   22.2073   19.0295 O   0  0  0  0  0  0  0  0  0  0  0  0
   19.7559   20.5215   20.5582 C   0  0  0  0  0  0  0  0  0  0  0  0
   20.0008   21.2259   21.3499 H   0  0  0  0  0  0  0  0  0  0  0  0
   19.3958   19.2536   20.8614 C   0  0  0  0  0  0  0  0  0  0  0  0
   19.1505   18.5391   20.0759 H   0  0  0  0  0  0  0  0  0  0  0  0
   19.3056   18.7260   22.2765 C   0  0  0  0  0  0  0  0  0  0  0  0
   18.6043   17.8813   22.3101 H   0  0  0  0  0  0  0  0  0  0  0  0
   18.8954   19.4993   22.9402 H   0  0  0  0  0  0  0  0  0  0  0  0
   20.6851   18.2723   22.7962 C   0  0  0  0  0  0  0  0  0  0  0  0
   21.0923   17.4973   22.1319 H   0  0  0  0  0  0  0  0  0  0  0  0
   21.3870   19.1173   22.7671 H   0  0  0  0  0  0  0  0  0  0  0  0
   20.6001   17.7244   24.2349 C   0  0  0  0  0  0  0  0  0  0  0  0
   19.9282   16.8576   24.2863 H   0  0  0  0  0  0  0  0  0  0  0  0
   21.5902   17.4069   24.5870 H   0  0  0  0  0  0  0  0  0  0  0  0
   20.2245   18.4909   24.9256 H   0  0  0  0  0  0  0  0  0  0  0  0
  1  2  1  0  0  0  0
  1  3  2  0  0  0  0
  1  4  1  0  0  0  0
  4  5  1  0  0  0  0
  4  6  2  0  0  0  0
  6  7  1  0  0  0  0
  6  8  1  0  0  0  0
  8  9  1  0  0  0  0
  8 10  1  0  0  0  0
  8 11  1  0  0  0  0
 11 12  1  0  0  0  0
 11 13  1  0  0  0  0
 11 14  1  0  0  0  0
 14 15  1  0  0  0  0
 14 16  1  0  0  0  0
 14 17  1  0  0  0  0
M  END
> <VConfSearch Rank>
558

> <Conf_Id>
1

> <Delta U+W>
0.030

> <U+W>
-53.378

> <U>
9.048

> <W>
-62.426

> <W(PB)>
-64.506

> <W(SA)>
2.080

> <Valence>
2.652

> <Coulomb>
5.578

> <VdW>
0.818

> <VdW6>
-4.535

> <VdW12>
5.352

> <Bond>
0.063

> <Angle>
2.579

> <Pdih>
0.010

> <Idih>
0.000

> <Tether>
0.000

$$$$
VeraChem MOL file


 17 16  0  0  0  0  0  0  0  0999 V2000     
   18.8176   21.8487   21.3869 C   0  0  0  0  0  0  0  0  0  0  0  0
   17.6338   21.5699   21.3484 O   0  5  0  0  0  0  0  0  0  0  0  0
   19.2240   22.9918   21.4638 O   0  0  0  0  0  0  0  0  0  0  0  0
   19.8314   20.7608   21.3356 C   0  0  0  0  0  0  0  0  0  0  0  0
   20.8708   21.0784   21.3730 H   0  0  0  0  0  0  0  0  0  0  0  0
   19.5230   19.4467   21.2510 C   0  0  0  0  0  0  0  0  0  0  0  0
   18.4848   19.1173   21.2163 H   0  0  0  0  0  0  0  0  0  0  0  0
   20.5604   18.3446   21.2031 C   0  0  0  0  0  0  0  0  0  0  0  0
   21.3966   18.6536   20.5613 H   0  0  0  0  0  0  0  0  0  0  0  0
   20.1308   17.4483   20.7359 H   0  0  0  0  0  0  0  0  0  0  0  0
   21.1030   17.9870   22.6042 C   0  0  0  0  0  0  0  0  0  0  0  0
   21.9220   17.2623   22.4980 H   0  0  0  0  0  0  0  0  0  0  0  0
   21.5347   18.8818   23.0738 H   0  0  0  0  0  0  0  0  0  0  0  0
   20.0170   17.3897   23.5243 C   0  0  0  0  0  0  0  0  0  0  0  0
   19.5798   16.4859   23.0803 H   0  0  0  0  0  0  0  0  0  0  0  0
   20.4438   17.1166   24.4981 H   0  0  0  0  0  0  0  0  0  0  0  0
   19.2081   18.1103   23.7018 H   0  0  0  0  0  0  0  0  0  0  0  0
  1  2  1  0  0  0  0
  1  3  2  0  0  0  0
  1  4  1  0  0  0  0
  4  5  1  0  0  0  0
  4  6  2  0  0  0  0
  6  7  1  0  0  0  0
  6  8  1  0  0  0  0
  8  9  1  0  0  0  0
  8 10  1  0  0  0  0
  8 11  1  0  0  0  0
 11 12  1  0  0  0  0
 11 13  1  0  0  0  0
 11 14  1  0  0  0  0
 14 15  1  0  0  0  0
 14 16  1  0  0  0  0
 14 17  1  0  0  0  0
M  END
> <VConfSearch Rank>
559

> <Conf_Id>
3

> <Delta U+W>
0.531

> <U+W>
-52.878

> <U>
10.067

> <W>
-62.945

> <W(PB)>
-64.982

> <W(SA)>
2.037

> <Valence>
2.779

> <Coulomb>
6.474

> <VdW>
0.815

> <VdW6>
-5.088

> <VdW12>
5.902

> <Bond>
0.078

> <Angle>
2.651

> <Pdih>
0.050

> <Idih>
0.000

> <Tether>
0.000

$$$$
VeraChem MOL file


 17 16  0  0  0  0  0  0  0  0999 V2000     
   18.3720   20.5181   19.9482 C   0  0  0  0  0  0  0  0  0  0  0  0
   18.7473   21.2570   19.0588 O   0  5  0  0  0  0  0  0  0  0  0  0
   17.2251   20.5028   20.3541 O   0  0  0  0  0  0  0  0  0  0  0  0
   19.3769   19.5994   20.5484 C   0  0  0  0  0  0  0  0  0  0  0  0
   20.3825   19.6645   20.1394 H   0  0  0  0  0  0  0  0  0  0  0  0
   19.1003   18.7272   21.5446 C   0  0  0  0  0  0  0  0  0  0  0  0
   18.0964   18.6581   21.9627 H   0  0  0  0  0  0  0  0  0  0  0  0
   20.1262   17.7951   22.1555 C   0  0  0  0  0  0  0  0  0  0  0  0
   21.0022   17.7012   21.4994 H   0  0  0  0  0  0  0  0  0  0  0  0
   19.6941   16.7885   22.2338 H   0  0  0  0  0  0  0  0  0  0  0  0
   20.5761   18.2575   23.5587 C   0  0  0  0  0  0  0  0  0  0  0  0
   19.7001   18.3543   24.2150 H   0  0  0  0  0  0  0  0  0  0  0  0
   21.2169   17.4834   24.0029 H   0  0  0  0  0  0  0  0  0  0  0  0
   21.3504   19.5924   23.5243 C   0  0  0  0  0  0  0  0  0  0  0  0
   20.7194   20.4068   23.1451 H   0  0  0  0  0  0  0  0  0  0  0  0
   21.6875   19.8693   24.5315 H   0  0  0  0  0  0  0  0  0  0  0  0
   22.2355   19.5163   22.8793 H   0  0  0  0  0  0  0  0  0  0  0  0
  1  2  1  0  0  0  0
  1  3  2  0  0  0  0
  1  4  1  0  0  0  0
  4  5  1  0  0  0  0
  4  6  2  0  0  0  0
  6  7  1  0  0  0  0
  6  8  1  0  0  0  0
  8  9  1  0  0  0  0
  8 10  1  0  0  0  0
  8 11  1  0  0  0  0
 11 12  1  0  0  0  0
 11 13  1  0  0  0  0
 11 14  1  0  0  0  0
 14 15  1  0  0  0  0
 14 16  1  0  0  0  0
 14 17  1  0  0  0  0
M  END
> <VConfSearch Rank>
560

> <Conf_Id>
45

> <Delta U+W>
0.562

> <U+W>
-52.846

> <U>
10.243

> <W>
-63.089

> <W(PB)>
-65.116

> <W(SA)>
2.026

> <Valence>
2.822

> <Coulomb>
6.637

> <VdW>
0.785

> <VdW6>
-5.216

> <VdW12>
6.001

> <Bond>
0.080

> <Angle>
2.678

> <Pdih>
0.064

> <Idih>
0.000

> <Tether>
0.000

$$$$
VeraChem MOL file


 17 16  0  0  0  0  0  0  0  0999 V2000     
   20.2829   20.6106   24.9244 C   0  0  0  0  0  0  0  0  0  0  0  0
   21.1013   20.4191   25.8026 O   0  5  0  0  0  0  0  0  0  0  0  0
   19.2632   21.2508   25.0998 O   0  0  0  0  0  0  0  0  0  0  0  0
   20.5632   20.0277   23.5843 C   0  0  0  0  0  0  0  0  0  0  0  0
   21.4911   19.4674   23.4952 H   0  0  0  0  0  0  0  0  0  0  0  0
   19.7419   20.1600   22.5180 C   0  0  0  0  0  0  0  0  0  0  0  0
   18.8086   20.7173   22.5969 H   0  0  0  0  0  0  0  0  0  0  0  0
   20.0334   19.5621   21.1590 C   0  0  0  0  0  0  0  0  0  0  0  0
   21.1060   19.6424   20.9357 H   0  0  0  0  0  0  0  0  0  0  0  0
   19.5090   20.1372   20.3840 H   0  0  0  0  0  0  0  0  0  0  0  0
   19.5964   18.0846   21.0897 C   0  0  0  0  0  0  0  0  0  0  0  0
   20.1234   17.5069   21.8619 H   0  0  0  0  0  0  0  0  0  0  0  0
   18.5229   18.0071   21.3115 H   0  0  0  0  0  0  0  0  0  0  0  0
   19.8816   17.4704   19.7045 C   0  0  0  0  0  0  0  0  0  0  0  0
   19.3406   18.0103   18.9163 H   0  0  0  0  0  0  0  0  0  0  0  0
   20.9539   17.5073   19.4716 H   0  0  0  0  0  0  0  0  0  0  0  0
   19.5643   16.4198   19.6745 H   0  0  0  0  0  0  0  0  0  0  0  0
  1  2  1  0  0  0  0
  1  3  2  0  0  0  0
  1  4  1  0  0  0  0
  4  5  1  0  0  0  0
  4  6  2  0  0  0  0
  6  7  1  0  0  0  0
  6  8  1  0  0  0  0
  8  9  1  0  0  0  0
  8 10  1  0  0  0  0
  8 11  1  0  0  0  0
 11 12  1  0  0  0  0
 11 13  1  0  0  0  0
 11 14  1  0  0  0  0
 14 15  1  0  0  0  0
 14 16  1  0  0  0  0
 14 17  1  0  0  0  0
M  END
> <VConfSearch Rank>
561

> <Conf_Id>
36

> <Delta U+W>
0.000

> <U+W>
-53.409

> <U>
9.048

> <W>
-62.457

> <W(PB)>
-64.540

> <W(SA)>
2.084

> <Valence>
2.652

> <Coulomb>
5.578

> <VdW>
0.818

> <VdW6>
-4.534

> <VdW12>
5.352

> <Bond>
0.063

> <Angle>
2.579

> <Pdih>
0.010

> <Idih>
0.000

> <Tether>
0.000

$$$$
VeraChem MOL file


 17 16  0  0  0  0  0  0  0  0999 V2000     
   18.4507   16.2343   21.0422 C   0  0  0  0  0  0  0  0  0  0  0  0
   17.9378   16.4297   19.9563 O   0  5  0  0  0  0  0  0  0  0  0  0
   18.2153   15.2501   21.7158 O   0  0  0  0  0  0  0  0  0  0  0  0
   19.4126   17.2285   21.5903 C   0  0  0  0  0  0  0  0  0  0  0  0
   19.8345   16.9934   22.5647 H   0  0  0  0  0  0  0  0  0  0  0  0
   19.7660   18.3669   20.9513 C   0  0  0  0  0  0  0  0  0  0  0  0
   19.3477   18.6134   19.9756 H   0  0  0  0  0  0  0  0  0  0  0  0
   20.7437   19.3738   21.5166 C   0  0  0  0  0  0  0  0  0  0  0  0
   21.2015   19.9426   20.6961 H   0  0  0  0  0  0  0  0  0  0  0  0
   21.5629   18.8536   22.0315 H   0  0  0  0  0  0  0  0  0  0  0  0
   20.0488   20.3448   22.4929 C   0  0  0  0  0  0  0  0  0  0  0  0
   19.2312   20.8655   21.9751 H   0  0  0  0  0  0  0  0  0  0  0  0
   19.5936   19.7776   23.3167 H   0  0  0  0  0  0  0  0  0  0  0  0
   21.0368   21.3803   23.0665 C   0  0  0  0  0  0  0  0  0  0  0  0
   21.4833   21.9835   22.2651 H   0  0  0  0  0  0  0  0  0  0  0  0
   20.5247   22.0617   23.7582 H   0  0  0  0  0  0  0  0  0  0  0  0
   21.8484   20.8861   23.6166 H   0  0  0  0  0  0  0  0  0  0  0  0
  1  2  1  0  0  0  0
  1  3  2  0  0  0  0
  1  4  1  0  0  0  0
  4  5  1  0  0  0  0
  4  6  2  0  0  0  0
  6  7  1  0  0  0  0
  6  8  1  0  0  0  0
  8  9  1  0  0  0  0
  8 10  1  0  0  0  0
  8 11  1  0  0  0  0
 11 12  1  0  0  0  0
 11 13  1  0  0  0  0
 11 14  1  0  0  0  0
 14 15  1  0  0  0  0
 14 16  1  0  0  0  0
 14 17  1  0  0  0  0
M  END
> <VConfSearch Rank>
562

> <Conf_Id>
1

> <Delta U+W>
0.030

> <U+W>
-53.378

> <U>
9.048

> <W>
-62.426

> <W(PB)>
-64.506

> <W(SA)>
2.080

> <Valence>
2.652

> <Coulomb>
5.578

> <VdW>
0.818

> <VdW6>
-4.535

> <VdW12>
5.352

> <Bond>
0.063

> <Angle>
2.579

> <Pdih>
0.010

> <Idih>
0.000

> <Tether>
0.000

$$$$
VeraChem MOL file


 17 16  0  0  0  0  0  0  0  0999 V2000     
   21.6550   17.7352   24.2832 C   0  0  0  0  0  0  0  0  0  0  0  0
   20.7609   17.3923   25.0339 O   0  5  0  0  0  0  0  0  0  0  0  0
   22.7856   17.2948   24.3592 O   0  0  0  0  0  0  0  0  0  0  0  0
   21.3782   18.7385   23.2198 C   0  0  0  0  0  0  0  0  0  0  0  0
   22.2207   19.0014   22.5843 H   0  0  0  0  0  0  0  0  0  0  0  0
   20.1690   19.3099   23.0192 C   0  0  0  0  0  0  0  0  0  0  0  0
   19.3173   19.0513   23.6479 H   0  0  0  0  0  0  0  0  0  0  0  0
   19.8938   20.3276   21.9322 C   0  0  0  0  0  0  0  0  0  0  0  0
   20.7395   21.0245   21.8575 H   0  0  0  0  0  0  0  0  0  0  0  0
   19.0196   20.9350   22.2028 H   0  0  0  0  0  0  0  0  0  0  0  0
   19.6581   19.6680   20.5557 C   0  0  0  0  0  0  0  0  0  0  0  0
   19.5696   20.4527   19.7918 H   0  0  0  0  0  0  0  0  0  0  0  0
   20.5318   19.0605   20.2816 H   0  0  0  0  0  0  0  0  0  0  0  0
   18.3871   18.7925   20.5292 C   0  0  0  0  0  0  0  0  0  0  0  0
   17.4983   19.3826   20.7880 H   0  0  0  0  0  0  0  0  0  0  0  0
   18.2322   18.3673   19.5291 H   0  0  0  0  0  0  0  0  0  0  0  0
   18.4649   17.9597   21.2403 H   0  0  0  0  0  0  0  0  0  0  0  0
  1  2  1  0  0  0  0
  1  3  2  0  0  0  0
  1  4  1  0  0  0  0
  4  5  1  0  0  0  0
  4  6  2  0  0  0  0
  6  7  1  0  0  0  0
  6  8  1  0  0  0  0
  8  9  1  0  0  0  0
  8 10  1  0  0  0  0
  8 11  1  0  0  0  0
 11 12  1  0  0  0  0
 11 13  1  0  0  0  0
 11 14  1  0  0  0  0
 14 15  1  0  0  0  0
 14 16  1  0  0  0  0
 14 17  1  0  0  0  0
M  END
> <VConfSearch Rank>
563

> <Conf_Id>
3

> <Delta U+W>
0.531

> <U+W>
-52.878

> <U>
10.067

> <W>
-62.945

> <W(PB)>
-64.982

> <W(SA)>
2.037

> <Valence>
2.779

> <Coulomb>
6.474

> <VdW>
0.815

> <VdW6>
-5.088

> <VdW12>
5.902

> <Bond>
0.078

> <Angle>
2.651

> <Pdih>
0.050

> <Idih>
0.000

> <Tether>
0.000

$$$$
VeraChem MOL file


 17 16  0  0  0  0  0  0  0  0999 V2000     
   21.7551   20.8472   23.7802 C   0  0  0  0  0  0  0  0  0  0  0  0
   22.7384   21.4899   23.4675 O   0  5  0  0  0  0  0  0  0  0  0  0
   21.5212   20.5139   24.9268 O   0  0  0  0  0  0  0  0  0  0  0  0
   20.8095   20.4663   22.6962 C   0  0  0  0  0  0  0  0  0  0  0  0
   21.0784   20.7960   21.6954 H   0  0  0  0  0  0  0  0  0  0  0  0
   19.6792   19.7516   22.8990 C   0  0  0  0  0  0  0  0  0  0  0  0
   19.4042   19.4142   23.8980 H   0  0  0  0  0  0  0  0  0  0  0  0
   18.7200   19.3630   21.7929 C   0  0  0  0  0  0  0  0  0  0  0  0
   18.8905   19.9789   20.8995 H   0  0  0  0  0  0  0  0  0  0  0  0
   17.6928   19.5751   22.1184 H   0  0  0  0  0  0  0  0  0  0  0  0
   18.8288   17.8680   21.4211 C   0  0  0  0  0  0  0  0  0  0  0  0
   18.6610   17.2512   22.3149 H   0  0  0  0  0  0  0  0  0  0  0  0
   18.0289   17.6160   20.7113 H   0  0  0  0  0  0  0  0  0  0  0  0
   20.1917   17.5104   20.7906 C   0  0  0  0  0  0  0  0  0  0  0  0
   21.0136   17.6887   21.4961 H   0  0  0  0  0  0  0  0  0  0  0  0
   20.2185   16.4512   20.5038 H   0  0  0  0  0  0  0  0  0  0  0  0
   20.3771   18.1104   19.8901 H   0  0  0  0  0  0  0  0  0  0  0  0
  1  2  1  0  0  0  0
  1  3  2  0  0  0  0
  1  4  1  0  0  0  0
  4  5  1  0  0  0  0
  4  6  2  0  0  0  0
  6  7  1  0  0  0  0
  6  8  1  0  0  0  0
  8  9  1  0  0  0  0
  8 10  1  0  0  0  0
  8 11  1  0  0  0  0
 11 12  1  0  0  0  0
 11 13  1  0  0  0  0
 11 14  1  0  0  0  0
 14 15  1  0  0  0  0
 14 16  1  0  0  0  0
 14 17  1  0  0  0  0
M  END
> <VConfSearch Rank>
564

> <Conf_Id>
45

> <Delta U+W>
0.562

> <U+W>
-52.846

> <U>
10.243

> <W>
-63.089

> <W(PB)>
-65.116

> <W(SA)>
2.026

> <Valence>
2.822

> <Coulomb>
6.637

> <VdW>
0.785

> <VdW6>
-5.216

> <VdW12>
6.001

> <Bond>
0.080

> <Angle>
2.678

> <Pdih>
0.064

> <Idih>
0.000

> <Tether>
0.000

$$$$
VeraChem MOL file


 17 16  0  0  0  0  0  0  0  0999 V2000     
   22.1345   20.5514   19.7371 C   0  0  0  0  0  0  0  0  0  0  0  0
   22.9074   20.0266   18.9593 O   0  5  0  0  0  0  0  0  0  0  0  0
   22.1777   21.7355   20.0135 O   0  0  0  0  0  0  0  0  0  0  0  0
   21.0982   19.6876   20.3647 C   0  0  0  0  0  0  0  0  0  0  0  0
   21.1148   18.6395   20.0747 H   0  0  0  0  0  0  0  0  0  0  0  0
   20.1765   20.1361   21.2470 C   0  0  0  0  0  0  0  0  0  0  0  0
   20.1524   21.1837   21.5463 H   0  0  0  0  0  0  0  0  0  0  0  0
   19.1272   19.2504   21.8825 C   0  0  0  0  0  0  0  0  0  0  0  0
   18.7562   18.5218   21.1487 H   0  0  0  0  0  0  0  0  0  0  0  0
   18.2638   19.8597   22.1818 H   0  0  0  0  0  0  0  0  0  0  0  0
   19.6879   18.5097   23.1137 C   0  0  0  0  0  0  0  0  0  0  0  0
   20.5494   17.8962   22.8151 H   0  0  0  0  0  0  0  0  0  0  0  0
   20.0565   19.2405   23.8470 H   0  0  0  0  0  0  0  0  0  0  0  0
   18.6217   17.6118   23.7729 C   0  0  0  0  0  0  0  0  0  0  0  0
   17.7619   18.2055   24.1101 H   0  0  0  0  0  0  0  0  0  0  0  0
   18.2587   16.8515   23.0690 H   0  0  0  0  0  0  0  0  0  0  0  0
   19.0388   17.0935   24.6462 H   0  0  0  0  0  0  0  0  0  0  0  0
  1  2  1  0  0  0  0
  1  3  2  0  0  0  0
  1  4  1  0  0  0  0
  4  5  1  0  0  0  0
  4  6  2  0  0  0  0
  6  7  1  0  0  0  0
  6  8  1  0  0  0  0
  8  9  1  0  0  0  0
  8 10  1  0  0  0  0
  8 11  1  0  0  0  0
 11 12  1  0  0  0  0
 11 13  1  0  0  0  0
 11 14  1  0  0  0  0
 14 15  1  0  0  0  0
 14 16  1  0  0  0  0
 14 17  1  0  0  0  0
M  END
> <VConfSearch Rank>
565

> <Conf_Id>
36

> <Delta U+W>
0.000

> <U+W>
-53.409

> <U>
9.048

> <W>
-62.457

> <W(PB)>
-64.540

> <W(SA)>
2.084

> <Valence>
2.652

> <Coulomb>
5.578

> <VdW>
0.818

> <VdW6>
-4.534

> <VdW12>
5.352

> <Bond>
0.063

> <Angle>
2.579

> <Pdih>
0.010

> <Idih>
0.000

> <Tether>
0.000

$$$$
VeraChem MOL file


 17 16  0  0  0  0  0  0  0  0999 V2000     
   23.0935   18.8660   20.5560 C   0  0  0  0  0  0  0  0  0  0  0  0
   23.8332   19.5439   21.2443 O   0  5  0  0  0  0  0  0  0  0  0  0
   23.4285   18.4069   19.4814 O   0  0  0  0  0  0  0  0  0  0  0  0
   21.7140   18.5713   21.0296 C   0  0  0  0  0  0  0  0  0  0  0  0
   21.1052   17.9602   20.3672 H   0  0  0  0  0  0  0  0  0  0  0  0
   21.2083   19.0170   22.2021 C   0  0  0  0  0  0  0  0  0  0  0  0
   21.8089   19.6317   22.8724 H   0  0  0  0  0  0  0  0  0  0  0  0
   19.8035   18.7142   22.6756 C   0  0  0  0  0  0  0  0  0  0  0  0
   19.7630   18.7778   23.7713 H   0  0  0  0  0  0  0  0  0  0  0  0
   19.5326   17.6826   22.4122 H   0  0  0  0  0  0  0  0  0  0  0  0
   18.7810   19.6933   22.0635 C   0  0  0  0  0  0  0  0  0  0  0  0
   19.0528   20.7242   22.3301 H   0  0  0  0  0  0  0  0  0  0  0  0
   18.8173   19.6280   20.9672 H   0  0  0  0  0  0  0  0  0  0  0  0
   17.3476   19.3971   22.5485 C   0  0  0  0  0  0  0  0  0  0  0  0
   17.2757   19.4868   23.6404 H   0  0  0  0  0  0  0  0  0  0  0  0
   16.6349   20.1032   22.1030 H   0  0  0  0  0  0  0  0  0  0  0  0
   17.0395   18.3816   22.2668 H   0  0  0  0  0  0  0  0  0  0  0  0
  1  2  1  0  0  0  0
  1  3  2  0  0  0  0
  1  4  1  0  0  0  0
  4  5  1  0  0  0  0
  4  6  2  0  0  0  0
  6  7  1  0  0  0  0
  6  8  1  0  0  0  0
  8  9  1  0  0  0  0
  8 10  1  0  0  0  0
  8 11  1  0  0  0  0
 11 12  1  0  0  0  0
 11 13  1  0  0  0  0
 11 14  1  0  0  0  0
 14 15  1  0  0  0  0
 14 16  1  0  0  0  0
 14 17  1  0  0  0  0
M  END
> <VConfSearch Rank>
566

> <Conf_Id>
1

> <Delta U+W>
0.030

> <U+W>
-53.378

> <U>
9.048

> <W>
-62.426

> <W(PB)>
-64.506

> <W(SA)>
2.080

> <Valence>
2.652

> <Coulomb>
5.578

> <VdW>
0.818

> <VdW6>
-4.535

> <VdW12>
5.352

> <Bond>
0.063

> <Angle>
2.579

> <Pdih>
0.010

> <Idih>
0.000

> <Tether>
0.000

$$$$
VeraChem MOL file


 17 16  0  0  0  0  0  0  0  0999 V2000     
   17.0624   19.1204   22.9289 C   0  0  0  0  0  0  0  0  0  0  0  0
   17.1498   19.7472   23.9681 O   0  5  0  0  0  0  0  0  0  0  0  0
   16.0050   18.9304   22.3600 O   0  0  0  0  0  0  0  0  0  0  0  0
   18.2886   18.5486   22.3096 C   0  0  0  0  0  0  0  0  0  0  0  0
   18.1404   17.9994   21.3827 H   0  0  0  0  0  0  0  0  0  0  0  0
   19.5291   18.6829   22.8311 C   0  0  0  0  0  0  0  0  0  0  0  0
   19.6894   19.2340   23.7575 H   0  0  0  0  0  0  0  0  0  0  0  0
   20.7732   18.1014   22.1930 C   0  0  0  0  0  0  0  0  0  0  0  0
   20.5534   17.0973   21.8055 H   0  0  0  0  0  0  0  0  0  0  0  0
   21.5560   17.9718   22.9523 H   0  0  0  0  0  0  0  0  0  0  0  0
   21.3099   18.9816   21.0429 C   0  0  0  0  0  0  0  0  0  0  0  0
   22.1440   18.4616   20.5518 H   0  0  0  0  0  0  0  0  0  0  0  0
   20.5291   19.1120   20.2808 H   0  0  0  0  0  0  0  0  0  0  0  0
   21.7947   20.3630   21.5321 C   0  0  0  0  0  0  0  0  0  0  0  0
   22.5854   20.2572   22.2864 H   0  0  0  0  0  0  0  0  0  0  0  0
   22.1997   20.9480   20.6963 H   0  0  0  0  0  0  0  0  0  0  0  0
   20.9713   20.9371   21.9767 H   0  0  0  0  0  0  0  0  0  0  0  0
  1  2  1  0  0  0  0
  1  3  2  0  0  0  0
  1  4  1  0  0  0  0
  4  5  1  0  0  0  0
  4  6  2  0  0  0  0
  6  7  1  0  0  0  0
  6  8  1  0  0  0  0
  8  9  1  0  0  0  0
  8 10  1  0  0  0  0
  8 11  1  0  0  0  0
 11 12  1  0  0  0  0
 11 13  1  0  0  0  0
 11 14  1  0  0  0  0
 14 15  1  0  0  0  0
 14 16  1  0  0  0  0
 14 17  1  0  0  0  0
M  END
> <VConfSearch Rank>
567

> <Conf_Id>
3

> <Delta U+W>
0.531

> <U+W>
-52.878

> <U>
10.067

> <W>
-62.945

> <W(PB)>
-64.982

> <W(SA)>
2.037

> <Valence>
2.779

> <Coulomb>
6.474

> <VdW>
0.815

> <VdW6>
-5.088

> <VdW12>
5.902

> <Bond>
0.078

> <Angle>
2.651

> <Pdih>
0.050

> <Idih>
0.000

> <Tether>
0.000

$$$$
VeraChem MOL file


 17 16  0  0  0  0  0  0  0  0999 V2000     
   20.1250   16.4854   23.5808 C   0  0  0  0  0  0  0  0  0  0  0  0
   20.2200   15.3509   23.1547 O   0  5  0  0  0  0  0  0  0  0  0  0
   19.7129   16.7391   24.6972 O   0  0  0  0  0  0  0  0  0  0  0  0
   20.5399   17.5949   22.6803 C   0  0  0  0  0  0  0  0  0  0  0  0
   20.8983   17.2985   21.6972 H   0  0  0  0  0  0  0  0  0  0  0  0
   20.4856   18.9027   23.0214 C   0  0  0  0  0  0  0  0  0  0  0  0
   20.1244   19.2086   24.0030 H   0  0  0  0  0  0  0  0  0  0  0  0
   20.9061   20.0301   22.1014 C   0  0  0  0  0  0  0  0  0  0  0  0
   21.5280   19.6475   21.2806 H   0  0  0  0  0  0  0  0  0  0  0  0
   21.5380   20.7326   22.6611 H   0  0  0  0  0  0  0  0  0  0  0  0
   19.6966   20.7963   21.5225 C   0  0  0  0  0  0  0  0  0  0  0  0
   19.0726   21.1770   22.3429 H   0  0  0  0  0  0  0  0  0  0  0  0
   20.0593   21.6743   20.9705 H   0  0  0  0  0  0  0  0  0  0  0  0
   18.8399   19.9269   20.5774 C   0  0  0  0  0  0  0  0  0  0  0  0
   18.4058   19.0713   21.1109 H   0  0  0  0  0  0  0  0  0  0  0  0
   18.0141   20.5141   20.1553 H   0  0  0  0  0  0  0  0  0  0  0  0
   19.4424   19.5414   19.7447 H   0  0  0  0  0  0  0  0  0  0  0  0
  1  2  1  0  0  0  0
  1  3  2  0  0  0  0
  1  4  1  0  0  0  0
  4  5  1  0  0  0  0
  4  6  2  0  0  0  0
  6  7  1  0  0  0  0
  6  8  1  0  0  0  0
  8  9  1  0  0  0  0
  8 10  1  0  0  0  0
  8 11  1  0  0  0  0
 11 12  1  0  0  0  0
 11 13  1  0  0  0  0
 11 14  1  0  0  0  0
 14 15  1  0  0  0  0
 14 16  1  0  0  0  0
 14 17  1  0  0  0  0
M  END
> <VConfSearch Rank>
568

> <Conf_Id>
45

> <Delta U+W>
0.562

> <U+W>
-52.846

> <U>
10.243

> <W>
-63.089

> <W(PB)>
-65.116

> <W(SA)>
2.026

> <Valence>
2.822

> <Coulomb>
6.637

> <VdW>
0.785

> <VdW6>
-5.216

> <VdW12>
6.001

> <Bond>
0.080

> <Angle>
2.678

> <Pdih>
0.064

> <Idih>
0.000

> <Tether>
0.000

$$$$
VeraChem MOL file


 17 16  0  0  0  0  0  0  0  0999 V2000     
   22.8039   20.8897   22.4947 C   0  0  0  0  0  0  0  0  0  0  0  0
   23.6422   20.7401   23.3621 O   0  5  0  0  0  0  0  0  0  0  0  0
   22.7401   21.8886   21.8029 O   0  0  0  0  0  0  0  0  0  0  0  0
   21.8247   19.7886   22.2876 C   0  0  0  0  0  0  0  0  0  0  0  0
   21.9373   18.9247   22.9387 H   0  0  0  0  0  0  0  0  0  0  0  0
   20.8397   19.8201   21.3614 C   0  0  0  0  0  0  0  0  0  0  0  0
   20.7165   20.6817   20.7054 H   0  0  0  0  0  0  0  0  0  0  0  0
   19.8466   18.6968   21.1587 C   0  0  0  0  0  0  0  0  0  0  0  0
   20.3483   17.7264   21.2746 H   0  0  0  0  0  0  0  0  0  0  0  0
   19.4605   18.7282   20.1309 H   0  0  0  0  0  0  0  0  0  0  0  0
   18.6728   18.7982   22.1542 C   0  0  0  0  0  0  0  0  0  0  0  0
   19.0570   18.7627   23.1831 H   0  0  0  0  0  0  0  0  0  0  0  0
   18.1714   19.7687   22.0349 H   0  0  0  0  0  0  0  0  0  0  0  0
   17.6510   17.6620   21.9479 C   0  0  0  0  0  0  0  0  0  0  0  0
   17.2270   17.6937   20.9357 H   0  0  0  0  0  0  0  0  0  0  0  0
   18.1207   16.6802   22.0924 H   0  0  0  0  0  0  0  0  0  0  0  0
   16.8241   17.7506   22.6645 H   0  0  0  0  0  0  0  0  0  0  0  0
  1  2  1  0  0  0  0
  1  3  2  0  0  0  0
  1  4  1  0  0  0  0
  4  5  1  0  0  0  0
  4  6  2  0  0  0  0
  6  7  1  0  0  0  0
  6  8  1  0  0  0  0
  8  9  1  0  0  0  0
  8 10  1  0  0  0  0
  8 11  1  0  0  0  0
 11 12  1  0  0  0  0
 11 13  1  0  0  0  0
 11 14  1  0  0  0  0
 14 15  1  0  0  0  0
 14 16  1  0  0  0  0
 14 17  1  0  0  0  0
M  END
> <VConfSearch Rank>
569

> <Conf_Id>
36

> <Delta U+W>
0.000

> <U+W>
-53.409

> <U>
9.048

> <W>
-62.457

> <W(PB)>
-64.540

> <W(SA)>
2.084

> <Valence>
2.652

> <Coulomb>
5.578

> <VdW>
0.818

> <VdW6>
-4.534

> <VdW12>
5.352

> <Bond>
0.063

> <Angle>
2.579

> <Pdih>
0.010

> <Idih>
0.000

> <Tether>
0.000

$$$$
VeraChem MOL file


 17 16  0  0  0  0  0  0  0  0999 V2000     
   17.1188   17.3734   21.7212 C   0  0  0  0  0  0  0  0  0  0  0  0
   16.2513   18.1750   21.4290 O   0  5  0  0  0  0  0  0  0  0  0  0
   16.8748   16.2360   22.0740 O   0  0  0  0  0  0  0  0  0  0  0  0
   18.5486   17.7793   21.6498 C   0  0  0  0  0  0  0  0  0  0  0  0
   19.2730   17.0157   21.9238 H   0  0  0  0  0  0  0  0  0  0  0  0
   18.9649   19.0104   21.2753 C   0  0  0  0  0  0  0  0  0  0  0  0
   18.2476   19.7836   21.0008 H   0  0  0  0  0  0  0  0  0  0  0  0
   20.4210   19.4156   21.2072 C   0  0  0  0  0  0  0  0  0  0  0  0
   20.5400   20.2413   20.4927 H   0  0  0  0  0  0  0  0  0  0  0  0
   21.0254   18.5818   20.8246 H   0  0  0  0  0  0  0  0  0  0  0  0
   20.9488   19.8496   22.5900 C   0  0  0  0  0  0  0  0  0  0  0  0
   20.3441   20.6850   22.9695 H   0  0  0  0  0  0  0  0  0  0  0  0
   20.8343   19.0231   23.3051 H   0  0  0  0  0  0  0  0  0  0  0  0
   22.4301   20.2731   22.5272 C   0  0  0  0  0  0  0  0  0  0  0  0
   22.5681   21.1199   21.8422 H   0  0  0  0  0  0  0  0  0  0  0  0
   22.7874   20.5782   23.5194 H   0  0  0  0  0  0  0  0  0  0  0  0
   23.0612   19.4446   22.1798 H   0  0  0  0  0  0  0  0  0  0  0  0
  1  2  1  0  0  0  0
  1  3  2  0  0  0  0
  1  4  1  0  0  0  0
  4  5  1  0  0  0  0
  4  6  2  0  0  0  0
  6  7  1  0  0  0  0
  6  8  1  0  0  0  0
  8  9  1  0  0  0  0
  8 10  1  0  0  0  0
  8 11  1  0  0  0  0
 11 12  1  0  0  0  0
 11 13  1  0  0  0  0
 11 14  1  0  0  0  0
 14 15  1  0  0  0  0
 14 16  1  0  0  0  0
 14 17  1  0  0  0  0
M  END
> <VConfSearch Rank>
570

> <Conf_Id>
1

> <Delta U+W>
0.030

> <U+W>
-53.378

> <U>
9.048

> <W>
-62.426

> <W(PB)>
-64.506

> <W(SA)>
2.080

> <Valence>
2.652

> <Coulomb>
5.578

> <VdW>
0.818

> <VdW6>
-4.535

> <VdW12>
5.352

> <Bond>
0.063

> <Angle>
2.579

> <Pdih>
0.010

> <Idih>
0.000

> <Tether>
0.000

$$$$
VeraChem MOL file


 17 16  0  0  0  0  0  0  0  0999 V2000     
   18.9199   21.9665   21.9466 C   0  0  0  0  0  0  0  0  0  0  0  0
   18.9686   22.2621   23.1259 O   0  5  0  0  0  0  0  0  0  0  0  0
   18.7829   22.7919   21.0647 O   0  0  0  0  0  0  0  0  0  0  0  0
   19.0269   20.5388   21.5413 C   0  0  0  0  0  0  0  0  0  0  0  0
   18.9750   20.3436   20.4727 H   0  0  0  0  0  0  0  0  0  0  0  0
   19.1831   19.5174   22.4138 C   0  0  0  0  0  0  0  0  0  0  0  0
   19.2396   19.7020   23.4863 H   0  0  0  0  0  0  0  0  0  0  0  0
   19.2952   18.0669   21.9935 C   0  0  0  0  0  0  0  0  0  0  0  0
   18.5828   17.8623   21.1828 H   0  0  0  0  0  0  0  0  0  0  0  0
   19.0057   17.4136   22.8276 H   0  0  0  0  0  0  0  0  0  0  0  0
   20.7191   17.7005   21.5207 C   0  0  0  0  0  0  0  0  0  0  0  0
   20.7150   16.6732   21.1310 H   0  0  0  0  0  0  0  0  0  0  0  0
   21.0111   18.3518   20.6852 H   0  0  0  0  0  0  0  0  0  0  0  0
   21.7637   17.8066   22.6522 C   0  0  0  0  0  0  0  0  0  0  0  0
   21.4986   17.1535   23.4939 H   0  0  0  0  0  0  0  0  0  0  0  0
   22.7560   17.5075   22.2906 H   0  0  0  0  0  0  0  0  0  0  0  0
   21.8384   18.8357   23.0271 H   0  0  0  0  0  0  0  0  0  0  0  0
  1  2  1  0  0  0  0
  1  3  2  0  0  0  0
  1  4  1  0  0  0  0
  4  5  1  0  0  0  0
  4  6  2  0  0  0  0
  6  7  1  0  0  0  0
  6  8  1  0  0  0  0
  8  9  1  0  0  0  0
  8 10  1  0  0  0  0
  8 11  1  0  0  0  0
 11 12  1  0  0  0  0
 11 13  1  0  0  0  0
 11 14  1  0  0  0  0
 14 15  1  0  0  0  0
 14 16  1  0  0  0  0
 14 17  1  0  0  0  0
M  END
> <VConfSearch Rank>
571

> <Conf_Id>
3

> <Delta U+W>
0.531

> <U+W>
-52.878

> <U>
10.067

> <W>
-62.945

> <W(PB)>
-64.982

> <W(SA)>
2.037

> <Valence>
2.779

> <Coulomb>
6.474

> <VdW>
0.815

> <VdW6>
-5.088

> <VdW12>
5.902

> <Bond>
0.078

> <Angle>
2.651

> <Pdih>
0.050

> <Idih>
0.000

> <Tether>
0.000

$$$$
VeraChem MOL file


 17 16  0  0  0  0  0  0  0  0999 V2000     
   22.0709   21.2462   22.4308 C   0  0  0  0  0  0  0  0  0  0  0  0
   23.2433   21.2452   22.1094 O   0  5  0  0  0  0  0  0  0  0  0  0
   21.6199   21.9908   23.2810 O   0  0  0  0  0  0  0  0  0  0  0  0
   21.1674   20.2884   21.7378 C   0  0  0  0  0  0  0  0  0  0  0  0
   21.6349   19.6527   20.9895 H   0  0  0  0  0  0  0  0  0  0  0  0
   19.8441   20.1793   21.9958 C   0  0  0  0  0  0  0  0  0  0  0  0
   19.3683   20.8098   22.7466 H   0  0  0  0  0  0  0  0  0  0  0  0
   18.9274   19.2013   21.2905 C   0  0  0  0  0  0  0  0  0  0  0  0
   19.3925   18.8338   20.3657 H   0  0  0  0  0  0  0  0  0  0  0  0
   18.0119   19.7250   20.9846 H   0  0  0  0  0  0  0  0  0  0  0  0
   18.5436   18.0052   22.1891 C   0  0  0  0  0  0  0  0  0  0  0  0
   18.0807   18.3721   23.1157 H   0  0  0  0  0  0  0  0  0  0  0  0
   17.7828   17.4010   21.6761 H   0  0  0  0  0  0  0  0  0  0  0  0
   19.7520   17.1076   22.5311 C   0  0  0  0  0  0  0  0  0  0  0  0
   20.5079   17.6617   23.1026 H   0  0  0  0  0  0  0  0  0  0  0  0
   19.4355   16.2486   23.1368 H   0  0  0  0  0  0  0  0  0  0  0  0
   20.2261   16.7231   21.6187 H   0  0  0  0  0  0  0  0  0  0  0  0
  1  2  1  0  0  0  0
  1  3  2  0  0  0  0
  1  4  1  0  0  0  0
  4  5  1  0  0  0  0
  4  6  2  0  0  0  0
  6  7  1  0  0  0  0
  6  8  1  0  0  0  0
  8  9  1  0  0  0  0
  8 10  1  0  0  0  0
  8 11  1  0  0  0  0
 11 12  1  0  0  0  0
 11 13  1  0  0  0  0
 11 14  1  0  0  0  0
 14 15  1  0  0  0  0
 14 16  1  0  0  0  0
 14 17  1  0  0  0  0
M  END
> <VConfSearch Rank>
572

> <Conf_Id>
45

> <Delta U+W>
0.562

> <U+W>
-52.846

> <U>
10.243

> <W>
-63.089

> <W(PB)>
-65.116

> <W(SA)>
2.026

> <Valence>
2.822

> <Coulomb>
6.637

> <VdW>
0.785

> <VdW6>
-5.216

> <VdW12>
6.001

> <Bond>
0.080

> <Angle>
2.678

> <Pdih>
0.064

> <Idih>
0.000

> <Tether>
0.000

$$$$
VeraChem MOL file


 17 16  0  0  0  0  0  0  0  0999 V2000     
   22.1165   21.1247   20.2279 C   0  0  0  0  0  0  0  0  0  0  0  0
   22.6182   20.9666   19.1319 O   0  5  0  0  0  0  0  0  0  0  0  0
   22.4969   21.9733   21.0123 O   0  0  0  0  0  0  0  0  0  0  0  0
   20.9884   20.2299   20.6031 C   0  0  0  0  0  0  0  0  0  0  0  0
   20.6981   19.4937   19.8569 H   0  0  0  0  0  0  0  0  0  0  0  0
   20.3387   20.2923   21.7876 C   0  0  0  0  0  0  0  0  0  0  0  0
   20.6229   21.0244   22.5433 H   0  0  0  0  0  0  0  0  0  0  0  0
   19.1936   19.3771   22.1622 C   0  0  0  0  0  0  0  0  0  0  0  0
   18.5540   19.1982   21.2872 H   0  0  0  0  0  0  0  0  0  0  0  0
   18.5624   19.8672   22.9157 H   0  0  0  0  0  0  0  0  0  0  0  0
   19.7073   18.0319   22.7152 C   0  0  0  0  0  0  0  0  0  0  0  0
   20.3356   17.5382   21.9608 H   0  0  0  0  0  0  0  0  0  0  0  0
   20.3450   18.2132   23.5915 H   0  0  0  0  0  0  0  0  0  0  0  0
   18.5460   17.0967   23.1083 C   0  0  0  0  0  0  0  0  0  0  0  0
   17.9193   17.5536   23.8854 H   0  0  0  0  0  0  0  0  0  0  0  0
   17.9100   16.8744   22.2414 H   0  0  0  0  0  0  0  0  0  0  0  0
   18.9307   16.1456   23.4990 H   0  0  0  0  0  0  0  0  0  0  0  0
  1  2  1  0  0  0  0
  1  3  2  0  0  0  0
  1  4  1  0  0  0  0
  4  5  1  0  0  0  0
  4  6  2  0  0  0  0
  6  7  1  0  0  0  0
  6  8  1  0  0  0  0
  8  9  1  0  0  0  0
  8 10  1  0  0  0  0
  8 11  1  0  0  0  0
 11 12  1  0  0  0  0
 11 13  1  0  0  0  0
 11 14  1  0  0  0  0
 14 15  1  0  0  0  0
 14 16  1  0  0  0  0
 14 17  1  0  0  0  0
M  END
> <VConfSearch Rank>
573

> <Conf_Id>
36

> <Delta U+W>
0.000

> <U+W>
-53.409

> <U>
9.048

> <W>
-62.457

> <W(PB)>
-64.540

> <W(SA)>
2.084

> <Valence>
2.652

> <Coulomb>
5.578

> <VdW>
0.818

> <VdW6>
-4.534

> <VdW12>
5.352

> <Bond>
0.063

> <Angle>
2.579

> <Pdih>
0.010

> <Idih>
0.000

> <Tether>
0.000

$$$$
VeraChem MOL file


 17 16  0  0  0  0  0  0  0  0999 V2000     
   21.3431   21.4410   23.9384 C   0  0  0  0  0  0  0  0  0  0  0  0
   21.1670   21.0618   25.0810 O   0  5  0  0  0  0  0  0  0  0  0  0
   21.7317   22.5604   23.6669 O   0  0  0  0  0  0  0  0  0  0  0  0
   21.0793   20.5115   22.8067 C   0  0  0  0  0  0  0  0  0  0  0  0
   21.2567   20.9129   21.8116 H   0  0  0  0  0  0  0  0  0  0  0  0
   20.6436   19.2405   22.9611 C   0  0  0  0  0  0  0  0  0  0  0  0
   20.4606   18.8289   23.9535 H   0  0  0  0  0  0  0  0  0  0  0  0
   20.3760   18.3023   21.8047 C   0  0  0  0  0  0  0  0  0  0  0  0
   20.4696   17.2623   22.1456 H   0  0  0  0  0  0  0  0  0  0  0  0
   21.1344   18.4442   21.0227 H   0  0  0  0  0  0  0  0  0  0  0  0
   18.9696   18.5268   21.2127 C   0  0  0  0  0  0  0  0  0  0  0  0
   18.2127   18.3822   21.9962 H   0  0  0  0  0  0  0  0  0  0  0  0
   18.8757   19.5658   20.8674 H   0  0  0  0  0  0  0  0  0  0  0  0
   18.6855   17.5678   20.0392 C   0  0  0  0  0  0  0  0  0  0  0  0
   18.7418   16.5208   20.3648 H   0  0  0  0  0  0  0  0  0  0  0  0
   17.6813   17.7423   19.6315 H   0  0  0  0  0  0  0  0  0  0  0  0
   19.4108   17.7141   19.2279 H   0  0  0  0  0  0  0  0  0  0  0  0
  1  2  1  0  0  0  0
  1  3  2  0  0  0  0
  1  4  1  0  0  0  0
  4  5  1  0  0  0  0
  4  6  2  0  0  0  0
  6  7  1  0  0  0  0
  6  8  1  0  0  0  0
  8  9  1  0  0  0  0
  8 10  1  0  0  0  0
  8 11  1  0  0  0  0
 11 12  1  0  0  0  0
 11 13  1  0  0  0  0
 11 14  1  0  0  0  0
 14 15  1  0  0  0  0
 14 16  1  0  0  0  0
 14 17  1  0  0  0  0
M  END
> <VConfSearch Rank>
574

> <Conf_Id>
1

> <Delta U+W>
0.030

> <U+W>
-53.378

> <U>
9.048

> <W>
-62.426

> <W(PB)>
-64.506

> <W(SA)>
2.080

> <Valence>
2.652

> <Coulomb>
5.578

> <VdW>
0.818

> <VdW6>
-4.535

> <VdW12>
5.352

> <Bond>
0.063

> <Angle>
2.579

> <Pdih>
0.010

> <Idih>
0.000

> <Tether>
0.000

$$$$
VeraChem MOL file


 17 16  0  0  0  0  0  0  0  0999 V2000     
   16.9471   18.9427   22.2904 C   0  0  0  0  0  0  0  0  0  0  0  0
   16.8143   19.0865   23.4913 O   0  5  0  0  0  0  0  0  0  0  0  0
   16.0271   19.0659   21.5054 O   0  0  0  0  0  0  0  0  0  0  0  0
   18.2835   18.5975   21.7345 C   0  0  0  0  0  0  0  0  0  0  0  0
   18.3329   18.4825   20.6541 H   0  0  0  0  0  0  0  0  0  0  0  0
   19.3936   18.4315   22.4888 C   0  0  0  0  0  0  0  0  0  0  0  0
   19.3561   18.5476   23.5717 H   0  0  0  0  0  0  0  0  0  0  0  0
   20.7513   18.0839   21.9154 C   0  0  0  0  0  0  0  0  0  0  0  0
   20.6340   17.3396   21.1162 H   0  0  0  0  0  0  0  0  0  0  0  0
   21.3716   17.6090   22.6874 H   0  0  0  0  0  0  0  0  0  0  0  0
   21.4852   19.3205   21.3518 C   0  0  0  0  0  0  0  0  0  0  0  0
   22.4108   18.9946   20.8575 H   0  0  0  0  0  0  0  0  0  0  0  0
   20.8674   19.7972   20.5781 H   0  0  0  0  0  0  0  0  0  0  0  0
   21.8340   20.3512   22.4467 C   0  0  0  0  0  0  0  0  0  0  0  0
   22.4625   19.8996   23.2253 H   0  0  0  0  0  0  0  0  0  0  0  0
   22.3832   21.1992   22.0174 H   0  0  0  0  0  0  0  0  0  0  0  0
   20.9269   20.7447   22.9236 H   0  0  0  0  0  0  0  0  0  0  0  0
  1  2  1  0  0  0  0
  1  3  2  0  0  0  0
  1  4  1  0  0  0  0
  4  5  1  0  0  0  0
  4  6  2  0  0  0  0
  6  7  1  0  0  0  0
  6  8  1  0  0  0  0
  8  9  1  0  0  0  0
  8 10  1  0  0  0  0
  8 11  1  0  0  0  0
 11 12  1  0  0  0  0
 11 13  1  0  0  0  0
 11 14  1  0  0  0  0
 14 15  1  0  0  0  0
 14 16  1  0  0  0  0
 14 17  1  0  0  0  0
M  END
> <VConfSearch Rank>
575

> <Conf_Id>
3

> <Delta U+W>
0.531

> <U+W>
-52.878

> <U>
10.067

> <W>
-62.945

> <W(PB)>
-64.982

> <W(SA)>
2.037

> <Valence>
2.779

> <Coulomb>
6.474

> <VdW>
0.815

> <VdW6>
-5.088

> <VdW12>
5.902

> <Bond>
0.078

> <Angle>
2.651

> <Pdih>
0.050

> <Idih>
0.000

> <Tether>
0.000

$$$$
VeraChem MOL file


 17 16  0  0  0  0  0  0  0  0999 V2000     
   18.3452   21.5002   22.9085 C   0  0  0  0  0  0  0  0  0  0  0  0
   17.3738   21.9992   22.3746 O   0  5  0  0  0  0  0  0  0  0  0  0
   19.0504   22.1051   23.6942 O   0  0  0  0  0  0  0  0  0  0  0  0
   18.6633   20.0859   22.5730 C   0  0  0  0  0  0  0  0  0  0  0  0
   17.9930   19.6046   21.8647 H   0  0  0  0  0  0  0  0  0  0  0  0
   19.7128   19.4066   23.0895 C   0  0  0  0  0  0  0  0  0  0  0  0
   20.3914   19.8823   23.7970 H   0  0  0  0  0  0  0  0  0  0  0  0
   20.0356   17.9676   22.7439 C   0  0  0  0  0  0  0  0  0  0  0  0
   19.1661   17.4755   22.2872 H   0  0  0  0  0  0  0  0  0  0  0  0
   20.2476   17.4157   23.6693 H   0  0  0  0  0  0  0  0  0  0  0  0
   21.2529   17.8503   21.8007 C   0  0  0  0  0  0  0  0  0  0  0  0
   22.1225   18.3446   22.2556 H   0  0  0  0  0  0  0  0  0  0  0  0
   21.5182   16.7900   21.6880 H   0  0  0  0  0  0  0  0  0  0  0  0
   20.9832   18.4523   20.4051 C   0  0  0  0  0  0  0  0  0  0  0  0
   20.7770   19.5285   20.4710 H   0  0  0  0  0  0  0  0  0  0  0  0
   21.8542   18.3162   19.7511 H   0  0  0  0  0  0  0  0  0  0  0  0
   20.1217   17.9671   19.9282 H   0  0  0  0  0  0  0  0  0  0  0  0
  1  2  1  0  0  0  0
  1  3  2  0  0  0  0
  1  4  1  0  0  0  0
  4  5  1  0  0  0  0
  4  6  2  0  0  0  0
  6  7  1  0  0  0  0
  6  8  1  0  0  0  0
  8  9  1  0  0  0  0
  8 10  1  0  0  0  0
  8 11  1  0  0  0  0
 11 12  1  0  0  0  0
 11 13  1  0  0  0  0
 11 14  1  0  0  0  0
 14 15  1  0  0  0  0
 14 16  1  0  0  0  0
 14 17  1  0  0  0  0
M  END
> <VConfSearch Rank>
576

> <Conf_Id>
45

> <Delta U+W>
0.562

> <U+W>
-52.846

> <U>
10.243

> <W>
-63.089

> <W(PB)>
-65.116

> <W(SA)>
2.026

> <Valence>
2.822

> <Coulomb>
6.637

> <VdW>
0.785

> <VdW6>
-5.216

> <VdW12>
6.001

> <Bond>
0.080

> <Angle>
2.678

> <Pdih>
0.064

> <Idih>
0.000

> <Tether>
0.000

$$$$
VeraChem MOL file


 17 16  0  0  0  0  0  0  0  0999 V2000     
   20.1720   18.9897   25.2795 C   0  0  0  0  0  0  0  0  0  0  0  0
   19.8799   18.0804   26.0315 O   0  5  0  0  0  0  0  0  0  0  0  0
   20.3784   20.1252   25.6648 O   0  0  0  0  0  0  0  0  0  0  0  0
   20.2770   18.6754   23.8288 C   0  0  0  0  0  0  0  0  0  0  0  0
   20.0804   17.6423   23.5516 H   0  0  0  0  0  0  0  0  0  0  0  0
   20.5920   19.5873   22.8809 C   0  0  0  0  0  0  0  0  0  0  0  0
   20.7886   20.6256   23.1473 H   0  0  0  0  0  0  0  0  0  0  0  0
   20.6946   19.2598   21.4073 C   0  0  0  0  0  0  0  0  0  0  0  0
   21.1513   18.2697   21.2735 H   0  0  0  0  0  0  0  0  0  0  0  0
   21.3619   19.9807   20.9160 H   0  0  0  0  0  0  0  0  0  0  0  0
   19.3106   19.2909   20.7271 C   0  0  0  0  0  0  0  0  0  0  0  0
   18.6429   18.5671   21.2149 H   0  0  0  0  0  0  0  0  0  0  0  0
   18.8568   20.2828   20.8605 H   0  0  0  0  0  0  0  0  0  0  0  0
   19.4078   18.9674   19.2226 C   0  0  0  0  0  0  0  0  0  0  0  0
   20.0451   19.6958   18.7044 H   0  0  0  0  0  0  0  0  0  0  0  0
   19.8304   17.9668   19.0625 H   0  0  0  0  0  0  0  0  0  0  0  0
   18.4143   18.9942   18.7564 H   0  0  0  0  0  0  0  0  0  0  0  0
  1  2  1  0  0  0  0
  1  3  2  0  0  0  0
  1  4  1  0  0  0  0
  4  5  1  0  0  0  0
  4  6  2  0  0  0  0
  6  7  1  0  0  0  0
  6  8  1  0  0  0  0
  8  9  1  0  0  0  0
  8 10  1  0  0  0  0
  8 11  1  0  0  0  0
 11 12  1  0  0  0  0
 11 13  1  0  0  0  0
 11 14  1  0  0  0  0
 14 15  1  0  0  0  0
 14 16  1  0  0  0  0
 14 17  1  0  0  0  0
M  END
> <VConfSearch Rank>
577

> <Conf_Id>
36

> <Delta U+W>
0.000

> <U+W>
-53.409

> <U>
9.048

> <W>
-62.457

> <W(PB)>
-64.540

> <W(SA)>
2.084

> <Valence>
2.652

> <Coulomb>
5.578

> <VdW>
0.818

> <VdW6>
-4.534

> <VdW12>
5.352

> <Bond>
0.063

> <Angle>
2.579

> <Pdih>
0.010

> <Idih>
0.000

> <Tether>
0.000

$$$$
VeraChem MOL file


 17 16  0  0  0  0  0  0  0  0999 V2000     
   16.9828   20.5656   21.7676 C   0  0  0  0  0  0  0  0  0  0  0  0
   16.2742   19.8470   21.0879 O   0  5  0  0  0  0  0  0  0  0  0  0
   16.6544   21.6855   22.1076 O   0  0  0  0  0  0  0  0  0  0  0  0
   18.3137   20.0735   22.2159 C   0  0  0  0  0  0  0  0  0  0  0  0
   18.8964   20.7650   22.8203 H   0  0  0  0  0  0  0  0  0  0  0  0
   18.8071   18.8516   21.9117 C   0  0  0  0  0  0  0  0  0  0  0  0
   18.2326   18.1518   21.3050 H   0  0  0  0  0  0  0  0  0  0  0  0
   20.1625   18.3596   22.3701 C   0  0  0  0  0  0  0  0  0  0  0  0
   20.1645   17.2617   22.3996 H   0  0  0  0  0  0  0  0  0  0  0  0
   20.3584   18.7002   23.3959 H   0  0  0  0  0  0  0  0  0  0  0  0
   21.2852   18.8528   21.4345 C   0  0  0  0  0  0  0  0  0  0  0  0
   21.0881   18.5091   20.4095 H   0  0  0  0  0  0  0  0  0  0  0  0
   21.2872   19.9513   21.4069 H   0  0  0  0  0  0  0  0  0  0  0  0
   22.6692   18.3478   21.8897 C   0  0  0  0  0  0  0  0  0  0  0  0
   22.7046   17.2505   21.8957 H   0  0  0  0  0  0  0  0  0  0  0  0
   23.4544   18.7085   21.2125 H   0  0  0  0  0  0  0  0  0  0  0  0
   22.9041   18.7042   22.9012 H   0  0  0  0  0  0  0  0  0  0  0  0
  1  2  1  0  0  0  0
  1  3  2  0  0  0  0
  1  4  1  0  0  0  0
  4  5  1  0  0  0  0
  4  6  2  0  0  0  0
  6  7  1  0  0  0  0
  6  8  1  0  0  0  0
  8  9  1  0  0  0  0
  8 10  1  0  0  0  0
  8 11  1  0  0  0  0
 11 12  1  0  0  0  0
 11 13  1  0  0  0  0
 11 14  1  0  0  0  0
 14 15  1  0  0  0  0
 14 16  1  0  0  0  0
 14 17  1  0  0  0  0
M  END
> <VConfSearch Rank>
578

> <Conf_Id>
1

> <Delta U+W>
0.030

> <U+W>
-53.378

> <U>
9.048

> <W>
-62.426

> <W(PB)>
-64.506

> <W(SA)>
2.080

> <Valence>
2.652

> <Coulomb>
5.578

> <VdW>
0.818

> <VdW6>
-4.535

> <VdW12>
5.352

> <Bond>
0.063

> <Angle>
2.579

> <Pdih>
0.010

> <Idih>
0.000

> <Tether>
0.000

$$$$
VeraChem MOL file


 17 16  0  0  0  0  0  0  0  0999 V2000     
   21.5359   17.3553   20.0034 C   0  0  0  0  0  0  0  0  0  0  0  0
   20.7240   16.4673   19.8226 O   0  5  0  0  0  0  0  0  0  0  0  0
   22.4786   17.5487   19.2607 O   0  0  0  0  0  0  0  0  0  0  0  0
   21.3922   18.2547   21.1801 C   0  0  0  0  0  0  0  0  0  0  0  0
   22.1517   19.0262   21.2835 H   0  0  0  0  0  0  0  0  0  0  0  0
   20.3932   18.1562   22.0864 C   0  0  0  0  0  0  0  0  0  0  0  0
   19.6251   17.3891   21.9906 H   0  0  0  0  0  0  0  0  0  0  0  0
   20.2512   19.0778   23.2795 C   0  0  0  0  0  0  0  0  0  0  0  0
   21.2403   19.2679   23.7178 H   0  0  0  0  0  0  0  0  0  0  0  0
   19.6589   18.5855   24.0625 H   0  0  0  0  0  0  0  0  0  0  0  0
   19.5953   20.4254   22.9063 C   0  0  0  0  0  0  0  0  0  0  0  0
   19.6147   21.0889   23.7818 H   0  0  0  0  0  0  0  0  0  0  0  0
   20.1865   20.9210   22.1238 H   0  0  0  0  0  0  0  0  0  0  0  0
   18.1363   20.2612   22.4300 C   0  0  0  0  0  0  0  0  0  0  0  0
   17.5230   19.7787   23.2022 H   0  0  0  0  0  0  0  0  0  0  0  0
   17.6912   21.2392   22.2057 H   0  0  0  0  0  0  0  0  0  0  0  0
   18.0833   19.6507   21.5191 H   0  0  0  0  0  0  0  0  0  0  0  0
  1  2  1  0  0  0  0
  1  3  2  0  0  0  0
  1  4  1  0  0  0  0
  4  5  1  0  0  0  0
  4  6  2  0  0  0  0
  6  7  1  0  0  0  0
  6  8  1  0  0  0  0
  8  9  1  0  0  0  0
  8 10  1  0  0  0  0
  8 11  1  0  0  0  0
 11 12  1  0  0  0  0
 11 13  1  0  0  0  0
 11 14  1  0  0  0  0
 14 15  1  0  0  0  0
 14 16  1  0  0  0  0
 14 17  1  0  0  0  0
M  END
> <VConfSearch Rank>
579

> <Conf_Id>
3

> <Delta U+W>
0.531

> <U+W>
-52.878

> <U>
10.067

> <W>
-62.945

> <W(PB)>
-64.982

> <W(SA)>
2.037

> <Valence>
2.779

> <Coulomb>
6.474

> <VdW>
0.815

> <VdW6>
-5.088

> <VdW12>
5.902

> <Bond>
0.078

> <Angle>
2.651

> <Pdih>
0.050

> <Idih>
0.000

> <Tether>
0.000

$$$$
VeraChem MOL file


 17 16  0  0  0  0  0  0  0  0999 V2000     
   20.7595   16.9209   24.0155 C   0  0  0  0  0  0  0  0  0  0  0  0
   21.8617   16.5970   24.4130 O   0  5  0  0  0  0  0  0  0  0  0  0
   19.7959   16.1796   24.0640 O   0  0  0  0  0  0  0  0  0  0  0  0
   20.6067   18.2897   23.4523 C   0  0  0  0  0  0  0  0  0  0  0  0
   21.5069   18.8997   23.4388 H   0  0  0  0  0  0  0  0  0  0  0  0
   19.4416   18.7813   22.9723 C   0  0  0  0  0  0  0  0  0  0  0  0
   18.5358   18.1755   22.9787 H   0  0  0  0  0  0  0  0  0  0  0  0
   19.2899   20.1743   22.3971 C   0  0  0  0  0  0  0  0  0  0  0  0
   20.1330   20.8108   22.6984 H   0  0  0  0  0  0  0  0  0  0  0  0
   18.3895   20.6402   22.8192 H   0  0  0  0  0  0  0  0  0  0  0  0
   19.1728   20.1630   20.8571 C   0  0  0  0  0  0  0  0  0  0  0  0
   18.3313   19.5243   20.5547 H   0  0  0  0  0  0  0  0  0  0  0  0
   18.9378   21.1779   20.5081 H   0  0  0  0  0  0  0  0  0  0  0  0
   20.4664   19.6807   20.1667 C   0  0  0  0  0  0  0  0  0  0  0  0
   20.6995   18.6438   20.4419 H   0  0  0  0  0  0  0  0  0  0  0  0
   20.3602   19.7230   19.0750 H   0  0  0  0  0  0  0  0  0  0  0  0
   21.3203   20.3102   20.4491 H   0  0  0  0  0  0  0  0  0  0  0  0
  1  2  1  0  0  0  0
  1  3  2  0  0  0  0
  1  4  1  0  0  0  0
  4  5  1  0  0  0  0
  4  6  2  0  0  0  0
  6  7  1  0  0  0  0
  6  8  1  0  0  0  0
  8  9  1  0  0  0  0
  8 10  1  0  0  0  0
  8 11  1  0  0  0  0
 11 12  1  0  0  0  0
 11 13  1  0  0  0  0
 11 14  1  0  0  0  0
 14 15  1  0  0  0  0
 14 16  1  0  0  0  0
 14 17  1  0  0  0  0
M  END
> <VConfSearch Rank>
580

> <Conf_Id>
45

> <Delta U+W>
0.562

> <U+W>
-52.846

> <U>
10.243

> <W>
-63.089

> <W(PB)>
-65.116

> <W(SA)>
2.026

> <Valence>
2.822

> <Coulomb>
6.637

> <VdW>
0.785

> <VdW6>
-5.216

> <VdW12>
6.001

> <Bond>
0.080

> <Angle>
2.678

> <Pdih>
0.064

> <Idih>
0.000

> <Tether>
0.000

$$$$
VeraChem MOL file


 17 16  0  0  0  0  0  0  0  0999 V2000     
   19.2067   16.1056   20.6147 C   0  0  0  0  0  0  0  0  0  0  0  0
   19.4432   14.9951   21.0488 O   0  5  0  0  0  0  0  0  0  0  0  0
   18.8205   16.3021   19.4778 O   0  0  0  0  0  0  0  0  0  0  0  0
   19.4044   17.2594   21.5334 C   0  0  0  0  0  0  0  0  0  0  0  0
   19.7507   17.0146   22.5349 H   0  0  0  0  0  0  0  0  0  0  0  0
   19.1816   18.5470   21.1850 C   0  0  0  0  0  0  0  0  0  0  0  0
   18.8368   18.8037   20.1835 H   0  0  0  0  0  0  0  0  0  0  0  0
   19.3872   19.7149   22.1248 C   0  0  0  0  0  0  0  0  0  0  0  0
   19.0640   19.4424   23.1387 H   0  0  0  0  0  0  0  0  0  0  0  0
   18.7543   20.5557   21.8105 H   0  0  0  0  0  0  0  0  0  0  0  0
   20.8633   20.1616   22.1514 C   0  0  0  0  0  0  0  0  0  0  0  0
   21.4975   19.3226   22.4698 H   0  0  0  0  0  0  0  0  0  0  0  0
   21.1836   20.4355   21.1366 H   0  0  0  0  0  0  0  0  0  0  0  0
   21.0795   21.3578   23.1000 C   0  0  0  0  0  0  0  0  0  0  0  0
   20.4802   22.2223   22.7853 H   0  0  0  0  0  0  0  0  0  0  0  0
   20.7956   21.0998   24.1287 H   0  0  0  0  0  0  0  0  0  0  0  0
   22.1346   21.6611   23.1057 H   0  0  0  0  0  0  0  0  0  0  0  0
  1  2  1  0  0  0  0
  1  3  2  0  0  0  0
  1  4  1  0  0  0  0
  4  5  1  0  0  0  0
  4  6  2  0  0  0  0
  6  7  1  0  0  0  0
  6  8  1  0  0  0  0
  8  9  1  0  0  0  0
  8 10  1  0  0  0  0
  8 11  1  0  0  0  0
 11 12  1  0  0  0  0
 11 13  1  0  0  0  0
 11 14  1  0  0  0  0
 14 15  1  0  0  0  0
 14 16  1  0  0  0  0
 14 17  1  0  0  0  0
M  END
> <VConfSearch Rank>
581

> <Conf_Id>
36

> <Delta U+W>
0.000

> <U+W>
-53.409

> <U>
9.048

> <W>
-62.457

> <W(PB)>
-64.540

> <W(SA)>
2.084

> <Valence>
2.652

> <Coulomb>
5.578

> <VdW>
0.818

> <VdW6>
-4.534

> <VdW12>
5.352

> <Bond>
0.063

> <Angle>
2.579

> <Pdih>
0.010

> <Idih>
0.000

> <Tether>
0.000

$$$$
VeraChem MOL file


 17 16  0  0  0  0  0  0  0  0999 V2000     
   22.7994   18.4226   23.6941 C   0  0  0  0  0  0  0  0  0  0  0  0
   22.4387   17.8816   24.7225 O   0  5  0  0  0  0  0  0  0  0  0  0
   23.9380   18.8093   23.5160 O   0  0  0  0  0  0  0  0  0  0  0  0
   21.8224   18.6297   22.5910 C   0  0  0  0  0  0  0  0  0  0  0  0
   22.2094   19.1187   21.6999 H   0  0  0  0  0  0  0  0  0  0  0  0
   20.5254   18.2514   22.6518 C   0  0  0  0  0  0  0  0  0  0  0  0
   20.1267   17.7627   23.5406 H   0  0  0  0  0  0  0  0  0  0  0  0
   19.5379   18.4675   21.5261 C   0  0  0  0  0  0  0  0  0  0  0  0
   18.7287   17.7284   21.5997 H   0  0  0  0  0  0  0  0  0  0  0  0
   20.0289   18.2980   20.5581 H   0  0  0  0  0  0  0  0  0  0  0  0
   18.9428   19.8899   21.5659 C   0  0  0  0  0  0  0  0  0  0  0  0
   18.4505   20.0563   22.5341 H   0  0  0  0  0  0  0  0  0  0  0  0
   19.7508   20.6307   21.4882 H   0  0  0  0  0  0  0  0  0  0  0  0
   17.9282   20.1152   20.4269 C   0  0  0  0  0  0  0  0  0  0  0  0
   17.0923   19.4070   20.4995 H   0  0  0  0  0  0  0  0  0  0  0  0
   17.5159   21.1316   20.4716 H   0  0  0  0  0  0  0  0  0  0  0  0
   18.4036   19.9852   19.4459 H   0  0  0  0  0  0  0  0  0  0  0  0
  1  2  1  0  0  0  0
  1  3  2  0  0  0  0
  1  4  1  0  0  0  0
  4  5  1  0  0  0  0
  4  6  2  0  0  0  0
  6  7  1  0  0  0  0
  6  8  1  0  0  0  0
  8  9  1  0  0  0  0
  8 10  1  0  0  0  0
  8 11  1  0  0  0  0
 11 12  1  0  0  0  0
 11 13  1  0  0  0  0
 11 14  1  0  0  0  0
 14 15  1  0  0  0  0
 14 16  1  0  0  0  0
 14 17  1  0  0  0  0
M  END
> <VConfSearch Rank>
582

> <Conf_Id>
1

> <Delta U+W>
0.030

> <U+W>
-53.378

> <U>
9.048

> <W>
-62.426

> <W(PB)>
-64.506

> <W(SA)>
2.080

> <Valence>
2.652

> <Coulomb>
5.578

> <VdW>
0.818

> <VdW6>
-4.535

> <VdW12>
5.352

> <Bond>
0.063

> <Angle>
2.579

> <Pdih>
0.010

> <Idih>
0.000

> <Tether>
0.000

$$$$
VeraChem MOL file


 17 16  0  0  0  0  0  0  0  0999 V2000     
   20.9828   21.6580   20.6500 C   0  0  0  0  0  0  0  0  0  0  0  0
   21.6936   22.1269   21.5191 O   0  5  0  0  0  0  0  0  0  0  0  0
   21.0190   22.0331   19.4942 O   0  0  0  0  0  0  0  0  0  0  0  0
   20.0166   20.5795   20.9926 C   0  0  0  0  0  0  0  0  0  0  0  0
   19.4113   20.2055   20.1701 H   0  0  0  0  0  0  0  0  0  0  0  0
   19.8703   20.0655   22.2349 C   0  0  0  0  0  0  0  0  0  0  0  0
   20.4739   20.4306   23.0656 H   0  0  0  0  0  0  0  0  0  0  0  0
   18.8873   18.9651   22.5754 C   0  0  0  0  0  0  0  0  0  0  0  0
   17.9411   19.1396   22.0455 H   0  0  0  0  0  0  0  0  0  0  0  0
   18.6485   18.9968   23.6470 H   0  0  0  0  0  0  0  0  0  0  0  0
   19.4229   17.5640   22.2070 C   0  0  0  0  0  0  0  0  0  0  0  0
   18.6316   16.8210   22.3768 H   0  0  0  0  0  0  0  0  0  0  0  0
   19.6616   17.5288   21.1350 H   0  0  0  0  0  0  0  0  0  0  0  0
   20.6684   17.1717   23.0301 C   0  0  0  0  0  0  0  0  0  0  0  0
   20.4493   17.1879   24.1057 H   0  0  0  0  0  0  0  0  0  0  0  0
   21.0015   16.1594   22.7672 H   0  0  0  0  0  0  0  0  0  0  0  0
   21.5020   17.8602   22.8396 H   0  0  0  0  0  0  0  0  0  0  0  0
  1  2  1  0  0  0  0
  1  3  2  0  0  0  0
  1  4  1  0  0  0  0
  4  5  1  0  0  0  0
  4  6  2  0  0  0  0
  6  7  1  0  0  0  0
  6  8  1  0  0  0  0
  8  9  1  0  0  0  0
  8 10  1  0  0  0  0
  8 11  1  0  0  0  0
 11 12  1  0  0  0  0
 11 13  1  0  0  0  0
 11 14  1  0  0  0  0
 14 15  1  0  0  0  0
 14 16  1  0  0  0  0
 14 17  1  0  0  0  0
M  END
> <VConfSearch Rank>
583

> <Conf_Id>
3

> <Delta U+W>
0.531

> <U+W>
-52.878

> <U>
10.067

> <W>
-62.945

> <W(PB)>
-64.982

> <W(SA)>
2.037

> <Valence>
2.779

> <Coulomb>
6.474

> <VdW>
0.815

> <VdW6>
-5.088

> <VdW12>
5.902

> <Bond>
0.078

> <Angle>
2.651

> <Pdih>
0.050

> <Idih>
0.000

> <Tether>
0.000

$$$$
VeraChem MOL file


 17 16  0  0  0  0  0  0  0  0999 V2000     
   17.7568   17.3611   23.1567 C   0  0  0  0  0  0  0  0  0  0  0  0
   17.6508   16.1501   23.1552 O   0  5  0  0  0  0  0  0  0  0  0  0
   16.8039   18.1072   23.2831 O   0  0  0  0  0  0  0  0  0  0  0  0
   19.1218   17.9319   22.9987 C   0  0  0  0  0  0  0  0  0  0  0  0
   19.9278   17.2098   22.8907 H   0  0  0  0  0  0  0  0  0  0  0  0
   19.3865   19.2582   22.9801 C   0  0  0  0  0  0  0  0  0  0  0  0
   18.5844   19.9886   23.0840 H   0  0  0  0  0  0  0  0  0  0  0  0
   20.7769   19.8363   22.8163 C   0  0  0  0  0  0  0  0  0  0  0  0
   21.5395   19.0733   23.0238 H   0  0  0  0  0  0  0  0  0  0  0  0
   20.9262   20.6278   23.5628 H   0  0  0  0  0  0  0  0  0  0  0  0
   21.0039   20.4271   21.4076 C   0  0  0  0  0  0  0  0  0  0  0  0
   20.2399   21.1886   21.1982 H   0  0  0  0  0  0  0  0  0  0  0  0
   21.9742   20.9422   21.3870 H   0  0  0  0  0  0  0  0  0  0  0  0
   20.9825   19.3506   20.3015 C   0  0  0  0  0  0  0  0  0  0  0  0
   20.0036   18.8565   20.2484 H   0  0  0  0  0  0  0  0  0  0  0  0
   21.1857   19.8004   19.3210 H   0  0  0  0  0  0  0  0  0  0  0  0
   21.7444   18.5823   20.4867 H   0  0  0  0  0  0  0  0  0  0  0  0
  1  2  1  0  0  0  0
  1  3  2  0  0  0  0
  1  4  1  0  0  0  0
  4  5  1  0  0  0  0
  4  6  2  0  0  0  0
  6  7  1  0  0  0  0
  6  8  1  0  0  0  0
  8  9  1  0  0  0  0
  8 10  1  0  0  0  0
  8 11  1  0  0  0  0
 11 12  1  0  0  0  0
 11 13  1  0  0  0  0
 11 14  1  0  0  0  0
 14 15  1  0  0  0  0
 14 16  1  0  0  0  0
 14 17  1  0  0  0  0
M  END
> <VConfSearch Rank>
584

> <Conf_Id>
45

> <Delta U+W>
0.562

> <U+W>
-52.846

> <U>
10.243

> <W>
-63.089

> <W(PB)>
-65.116

> <W(SA)>
2.026

> <Valence>
2.822

> <Coulomb>
6.637

> <VdW>
0.785

> <VdW6>
-5.216

> <VdW12>
6.001

> <Bond>
0.080

> <Angle>
2.678

> <Pdih>
0.064

> <Idih>
0.000

> <Tether>
0.000

$$$$
VeraChem MOL file


 17 16  0  0  0  0  0  0  0  0999 V2000     
   23.1369   19.7403   20.8613 C   0  0  0  0  0  0  0  0  0  0  0  0
   23.7644   20.7812   20.8853 O   0  5  0  0  0  0  0  0  0  0  0  0
   23.4932   18.7687   20.2214 O   0  0  0  0  0  0  0  0  0  0  0  0
   21.8823   19.6753   21.6587 C   0  0  0  0  0  0  0  0  0  0  0  0
   21.6212   20.5775   22.2071 H   0  0  0  0  0  0  0  0  0  0  0  0
   21.0859   18.5841   21.7232 C   0  0  0  0  0  0  0  0  0  0  0  0
   21.3367   17.6757   21.1758 H   0  0  0  0  0  0  0  0  0  0  0  0
   19.8102   18.5270   22.5348 C   0  0  0  0  0  0  0  0  0  0  0  0
   19.9443   19.0646   23.4835 H   0  0  0  0  0  0  0  0  0  0  0  0
   19.5867   17.4838   22.7957 H   0  0  0  0  0  0  0  0  0  0  0  0
   18.6224   19.1307   21.7579 C   0  0  0  0  0  0  0  0  0  0  0  0
   18.8427   20.1758   21.4997 H   0  0  0  0  0  0  0  0  0  0  0  0
   18.4890   18.5901   20.8105 H   0  0  0  0  0  0  0  0  0  0  0  0
   17.3162   19.0677   22.5748 C   0  0  0  0  0  0  0  0  0  0  0  0
   17.0553   18.0296   22.8194 H   0  0  0  0  0  0  0  0  0  0  0  0
   17.4130   19.6275   23.5143 H   0  0  0  0  0  0  0  0  0  0  0  0
   16.4832   19.5014   22.0063 H   0  0  0  0  0  0  0  0  0  0  0  0
  1  2  1  0  0  0  0
  1  3  2  0  0  0  0
  1  4  1  0  0  0  0
  4  5  1  0  0  0  0
  4  6  2  0  0  0  0
  6  7  1  0  0  0  0
  6  8  1  0  0  0  0
  8  9  1  0  0  0  0
  8 10  1  0  0  0  0
  8 11  1  0  0  0  0
 11 12  1  0  0  0  0
 11 13  1  0  0  0  0
 11 14  1  0  0  0  0
 14 15  1  0  0  0  0
 14 16  1  0  0  0  0
 14 17  1  0  0  0  0
M  END
> <VConfSearch Rank>
585

> <Conf_Id>
36

> <Delta U+W>
0.000

> <U+W>
-53.409

> <U>
9.048

> <W>
-62.457

> <W(PB)>
-64.540

> <W(SA)>
2.084

> <Valence>
2.652

> <Coulomb>
5.578

> <VdW>
0.818

> <VdW6>
-4.534

> <VdW12>
5.352

> <Bond>
0.063

> <Angle>
2.579

> <Pdih>
0.010

> <Idih>
0.000

> <Tether>
0.000

$$$$
VeraChem MOL file


 17 16  0  0  0  0  0  0  0  0999 V2000     
   22.4097   16.8895   22.7981 C   0  0  0  0  0  0  0  0  0  0  0  0
   22.7952   16.3579   21.7738 O   0  5  0  0  0  0  0  0  0  0  0  0
   22.7192   16.4927   23.9046 O   0  0  0  0  0  0  0  0  0  0  0  0
   21.5204   18.0800   22.7185 C   0  0  0  0  0  0  0  0  0  0  0  0
   21.2124   18.5068   23.6703 H   0  0  0  0  0  0  0  0  0  0  0  0
   21.0963   18.6276   21.5569 C   0  0  0  0  0  0  0  0  0  0  0  0
   21.3970   18.2067   20.5977 H   0  0  0  0  0  0  0  0  0  0  0  0
   20.1904   19.8373   21.4848 C   0  0  0  0  0  0  0  0  0  0  0  0
   20.3375   20.3503   20.5248 H   0  0  0  0  0  0  0  0  0  0  0  0
   20.4622   20.5573   22.2687 H   0  0  0  0  0  0  0  0  0  0  0  0
   18.7079   19.4390   21.6352 C   0  0  0  0  0  0  0  0  0  0  0  0
   18.4379   18.7205   20.8488 H   0  0  0  0  0  0  0  0  0  0  0  0
   18.5581   18.9292   22.5971 H   0  0  0  0  0  0  0  0  0  0  0  0
   17.7772   20.6656   21.5534 C   0  0  0  0  0  0  0  0  0  0  0  0
   17.8840   21.1763   20.5874 H   0  0  0  0  0  0  0  0  0  0  0  0
   16.7277   20.3627   21.6624 H   0  0  0  0  0  0  0  0  0  0  0  0
   18.0063   21.3863   22.3495 H   0  0  0  0  0  0  0  0  0  0  0  0
  1  2  1  0  0  0  0
  1  3  2  0  0  0  0
  1  4  1  0  0  0  0
  4  5  1  0  0  0  0
  4  6  2  0  0  0  0
  6  7  1  0  0  0  0
  6  8  1  0  0  0  0
  8  9  1  0  0  0  0
  8 10  1  0  0  0  0
  8 11  1  0  0  0  0
 11 12  1  0  0  0  0
 11 13  1  0  0  0  0
 11 14  1  0  0  0  0
 14 15  1  0  0  0  0
 14 16  1  0  0  0  0
 14 17  1  0  0  0  0
M  END
> <VConfSearch Rank>
586

> <Conf_Id>
1

> <Delta U+W>
0.030

> <U+W>
-53.378

> <U>
9.048

> <W>
-62.426

> <W(PB)>
-64.506

> <W(SA)>
2.080

> <Valence>
2.652

> <Coulomb>
5.578

> <VdW>
0.818

> <VdW6>
-4.535

> <VdW12>
5.352

> <Bond>
0.063

> <Angle>
2.579

> <Pdih>
0.010

> <Idih>
0.000

> <Tether>
0.000

$$$$
VeraChem MOL file


 17 16  0  0  0  0  0  0  0  0999 V2000     
   21.4598   16.5974   20.9482 C   0  0  0  0  0  0  0  0  0  0  0  0
   20.8554   16.4381   19.9043 O   0  5  0  0  0  0  0  0  0  0  0  0
   22.5242   16.0592   21.1831 O   0  0  0  0  0  0  0  0  0  0  0  0
   20.8900   17.4821   22.0002 C   0  0  0  0  0  0  0  0  0  0  0  0
   21.4798   17.5802   22.9086 H   0  0  0  0  0  0  0  0  0  0  0  0
   19.7174   18.1441   21.8743 C   0  0  0  0  0  0  0  0  0  0  0  0
   19.1201   18.0556   20.9671 H   0  0  0  0  0  0  0  0  0  0  0  0
   19.1456   19.0460   22.9479 C   0  0  0  0  0  0  0  0  0  0  0  0
   19.3014   18.5888   23.9344 H   0  0  0  0  0  0  0  0  0  0  0  0
   18.0584   19.1350   22.8200 H   0  0  0  0  0  0  0  0  0  0  0  0
   19.7838   20.4524   22.9352 C   0  0  0  0  0  0  0  0  0  0  0  0
   19.4099   21.0243   23.7956 H   0  0  0  0  0  0  0  0  0  0  0  0
   20.8717   20.3666   23.0643 H   0  0  0  0  0  0  0  0  0  0  0  0
   19.4739   21.2309   21.6388 C   0  0  0  0  0  0  0  0  0  0  0  0
   18.3909   21.3399   21.4956 H   0  0  0  0  0  0  0  0  0  0  0  0
   19.9134   22.2360   21.6779 H   0  0  0  0  0  0  0  0  0  0  0  0
   19.8860   20.7174   20.7603 H   0  0  0  0  0  0  0  0  0  0  0  0
  1  2  1  0  0  0  0
  1  3  2  0  0  0  0
  1  4  1  0  0  0  0
  4  5  1  0  0  0  0
  4  6  2  0  0  0  0
  6  7  1  0  0  0  0
  6  8  1  0  0  0  0
  8  9  1  0  0  0  0
  8 10  1  0  0  0  0
  8 11  1  0  0  0  0
 11 12  1  0  0  0  0
 11 13  1  0  0  0  0
 11 14  1  0  0  0  0
 14 15  1  0  0  0  0
 14 16  1  0  0  0  0
 14 17  1  0  0  0  0
M  END
> <VConfSearch Rank>
587

> <Conf_Id>
3

> <Delta U+W>
0.531

> <U+W>
-52.878

> <U>
10.067

> <W>
-62.945

> <W(PB)>
-64.982

> <W(SA)>
2.037

> <Valence>
2.779

> <Coulomb>
6.474

> <VdW>
0.815

> <VdW6>
-5.088

> <VdW12>
5.902

> <Bond>
0.078

> <Angle>
2.651

> <Pdih>
0.050

> <Idih>
0.000

> <Tether>
0.000

$$$$
VeraChem MOL file


 17 16  0  0  0  0  0  0  0  0999 V2000     
   22.8172   18.3359   22.7607 C   0  0  0  0  0  0  0  0  0  0  0  0
   23.8350   18.4764   22.1109 O   0  5  0  0  0  0  0  0  0  0  0  0
   22.7186   17.5305   23.6674 O   0  0  0  0  0  0  0  0  0  0  0  0
   21.6564   19.2002   22.4153 C   0  0  0  0  0  0  0  0  0  0  0  0
   21.8122   19.8976   21.5954 H   0  0  0  0  0  0  0  0  0  0  0  0
   20.4638   19.1501   23.0516 C   0  0  0  0  0  0  0  0  0  0  0  0
   20.2980   18.4518   23.8716 H   0  0  0  0  0  0  0  0  0  0  0  0
   19.2829   20.0295   22.6958 C   0  0  0  0  0  0  0  0  0  0  0  0
   19.6087   20.8893   22.0947 H   0  0  0  0  0  0  0  0  0  0  0  0
   18.8556   20.4459   23.6177 H   0  0  0  0  0  0  0  0  0  0  0  0
   18.1821   19.2546   21.9389 C   0  0  0  0  0  0  0  0  0  0  0  0
   17.8575   18.3927   22.5384 H   0  0  0  0  0  0  0  0  0  0  0  0
   17.3034   19.9036   21.8211 H   0  0  0  0  0  0  0  0  0  0  0  0
   18.6438   18.7754   20.5461 C   0  0  0  0  0  0  0  0  0  0  0  0
   19.4825   18.0718   20.6271 H   0  0  0  0  0  0  0  0  0  0  0  0
   17.8254   18.2642   20.0228 H   0  0  0  0  0  0  0  0  0  0  0  0
   18.9659   19.6224   19.9264 H   0  0  0  0  0  0  0  0  0  0  0  0
  1  2  1  0  0  0  0
  1  3  2  0  0  0  0
  1  4  1  0  0  0  0
  4  5  1  0  0  0  0
  4  6  2  0  0  0  0
  6  7  1  0  0  0  0
  6  8  1  0  0  0  0
  8  9  1  0  0  0  0
  8 10  1  0  0  0  0
  8 11  1  0  0  0  0
 11 12  1  0  0  0  0
 11 13  1  0  0  0  0
 11 14  1  0  0  0  0
 14 15  1  0  0  0  0
 14 16  1  0  0  0  0
 14 17  1  0  0  0  0
M  END
> <VConfSearch Rank>
588

> <Conf_Id>
45

> <Delta U+W>
0.562

> <U+W>
-52.846

> <U>
10.243

> <W>
-63.089

> <W(PB)>
-65.116

> <W(SA)>
2.026

> <Valence>
2.822

> <Coulomb>
6.637

> <VdW>
0.785

> <VdW6>
-5.216

> <VdW12>
6.001

> <Bond>
0.080

> <Angle>
2.678

> <Pdih>
0.064

> <Idih>
0.000

> <Tether>
0.000

$$$$
VeraChem MOL file


 17 16  0  0  0  0  0  0  0  0999 V2000     
   21.8071   16.2787   21.7478 C   0  0  0  0  0  0  0  0  0  0  0  0
   22.4632   15.7332   22.6137 O   0  5  0  0  0  0  0  0  0  0  0  0
   21.8884   15.9806   20.5710 O   0  0  0  0  0  0  0  0  0  0  0  0
   20.8695   17.3540   22.1705 C   0  0  0  0  0  0  0  0  0  0  0  0
   20.8454   17.5710   23.2360 H   0  0  0  0  0  0  0  0  0  0  0  0
   20.0807   18.0450   21.3164 C   0  0  0  0  0  0  0  0  0  0  0  0
   20.0986   17.8374   20.2467 H   0  0  0  0  0  0  0  0  0  0  0  0
   19.1314   19.1388   21.7542 C   0  0  0  0  0  0  0  0  0  0  0  0
   18.6612   18.8678   22.7094 H   0  0  0  0  0  0  0  0  0  0  0  0
   18.3185   19.2351   21.0220 H   0  0  0  0  0  0  0  0  0  0  0  0
   19.8598   20.4908   21.8976 C   0  0  0  0  0  0  0  0  0  0  0  0
   20.6709   20.3972   22.6331 H   0  0  0  0  0  0  0  0  0  0  0  0
   20.3275   20.7606   20.9405 H   0  0  0  0  0  0  0  0  0  0  0  0
   18.8970   21.6131   22.3346 C   0  0  0  0  0  0  0  0  0  0  0  0
   18.0929   21.7494   21.5995 H   0  0  0  0  0  0  0  0  0  0  0  0
   18.4389   21.3820   23.3052 H   0  0  0  0  0  0  0  0  0  0  0  0
   19.4328   22.5664   22.4313 H   0  0  0  0  0  0  0  0  0  0  0  0
  1  2  1  0  0  0  0
  1  3  2  0  0  0  0
  1  4  1  0  0  0  0
  4  5  1  0  0  0  0
  4  6  2  0  0  0  0
  6  7  1  0  0  0  0
  6  8  1  0  0  0  0
  8  9  1  0  0  0  0
  8 10  1  0  0  0  0
  8 11  1  0  0  0  0
 11 12  1  0  0  0  0
 11 13  1  0  0  0  0
 11 14  1  0  0  0  0
 14 15  1  0  0  0  0
 14 16  1  0  0  0  0
 14 17  1  0  0  0  0
M  END
> <VConfSearch Rank>
589

> <Conf_Id>
36

> <Delta U+W>
0.000

> <U+W>
-53.409

> <U>
9.048

> <W>
-62.457

> <W(PB)>
-64.540

> <W(SA)>
2.084

> <Valence>
2.652

> <Coulomb>
5.578

> <VdW>
0.818

> <VdW6>
-4.534

> <VdW12>
5.352

> <Bond>
0.063

> <Angle>
2.579

> <Pdih>
0.010

> <Idih>
0.000

> <Tether>
0.000

$$$$
VeraChem MOL file


 17 16  0  0  0  0  0  0  0  0999 V2000     
   18.9127   21.4938   19.8156 C   0  0  0  0  0  0  0  0  0  0  0  0
   18.1308   22.1810   20.4455 O   0  5  0  0  0  0  0  0  0  0  0  0
   19.0493   21.5847   18.6111 O   0  0  0  0  0  0  0  0  0  0  0  0
   19.7505   20.4921   20.5289 C   0  0  0  0  0  0  0  0  0  0  0  0
   20.4281   19.9112   19.9073 H   0  0  0  0  0  0  0  0  0  0  0  0
   19.7024   20.2831   21.8642 C   0  0  0  0  0  0  0  0  0  0  0  0
   19.0256   20.8579   22.4961 H   0  0  0  0  0  0  0  0  0  0  0  0
   20.5566   19.2609   22.5816 C   0  0  0  0  0  0  0  0  0  0  0  0
   20.6823   19.5583   23.6314 H   0  0  0  0  0  0  0  0  0  0  0  0
   21.5626   19.2365   22.1411 H   0  0  0  0  0  0  0  0  0  0  0  0
   19.9252   17.8552   22.5156 C   0  0  0  0  0  0  0  0  0  0  0  0
   18.9200   17.8816   22.9587 H   0  0  0  0  0  0  0  0  0  0  0  0
   19.8025   17.5543   21.4658 H   0  0  0  0  0  0  0  0  0  0  0  0
   20.7854   16.8090   23.2526 C   0  0  0  0  0  0  0  0  0  0  0  0
   20.8977   17.0694   24.3133 H   0  0  0  0  0  0  0  0  0  0  0  0
   20.3206   15.8161   23.1948 H   0  0  0  0  0  0  0  0  0  0  0  0
   21.7871   16.7406   22.8083 H   0  0  0  0  0  0  0  0  0  0  0  0
  1  2  1  0  0  0  0
  1  3  2  0  0  0  0
  1  4  1  0  0  0  0
  4  5  1  0  0  0  0
  4  6  2  0  0  0  0
  6  7  1  0  0  0  0
  6  8  1  0  0  0  0
  8  9  1  0  0  0  0
  8 10  1  0  0  0  0
  8 11  1  0  0  0  0
 11 12  1  0  0  0  0
 11 13  1  0  0  0  0
 11 14  1  0  0  0  0
 14 15  1  0  0  0  0
 14 16  1  0  0  0  0
 14 17  1  0  0  0  0
M  END
> <VConfSearch Rank>
590

> <Conf_Id>
1

> <Delta U+W>
0.030

> <U+W>
-53.378

> <U>
9.048

> <W>
-62.426

> <W(PB)>
-64.506

> <W(SA)>
2.080

> <Valence>
2.652

> <Coulomb>
5.578

> <VdW>
0.818

> <VdW6>
-4.535

> <VdW12>
5.352

> <Bond>
0.063

> <Angle>
2.579

> <Pdih>
0.010

> <Idih>
0.000

> <Tether>
0.000

$$$$
VeraChem MOL file


 17 16  0  0  0  0  0  0  0  0999 V2000     
   22.9396   18.7565   22.9702 C   0  0  0  0  0  0  0  0  0  0  0  0
   23.0141   17.5436   23.0303 O   0  5  0  0  0  0  0  0  0  0  0  0
   23.9177   19.4784   22.9676 O   0  0  0  0  0  0  0  0  0  0  0  0
   21.6040   19.4086   22.8995 C   0  0  0  0  0  0  0  0  0  0  0  0
   21.6082   20.4950   22.8487 H   0  0  0  0  0  0  0  0  0  0  0  0
   20.4338   18.7307   22.8928 C   0  0  0  0  0  0  0  0  0  0  0  0
   20.4181   17.6421   22.9399 H   0  0  0  0  0  0  0  0  0  0  0  0
   19.0782   19.4012   22.8166 C   0  0  0  0  0  0  0  0  0  0  0  0
   19.0753   20.2990   23.4494 H   0  0  0  0  0  0  0  0  0  0  0  0
   18.3087   18.7342   23.2281 H   0  0  0  0  0  0  0  0  0  0  0  0
   18.6991   19.7982   21.3729 C   0  0  0  0  0  0  0  0  0  0  0  0
   17.7617   20.3708   21.3923 H   0  0  0  0  0  0  0  0  0  0  0  0
   19.4667   20.4666   20.9589 H   0  0  0  0  0  0  0  0  0  0  0  0
   18.5233   18.5737   20.4497 C   0  0  0  0  0  0  0  0  0  0  0  0
   17.7510   17.8969   20.8377 H   0  0  0  0  0  0  0  0  0  0  0  0
   18.2220   18.8898   19.4426 H   0  0  0  0  0  0  0  0  0  0  0  0
   19.4601   18.0085   20.3586 H   0  0  0  0  0  0  0  0  0  0  0  0
  1  2  1  0  0  0  0
  1  3  2  0  0  0  0
  1  4  1  0  0  0  0
  4  5  1  0  0  0  0
  4  6  2  0  0  0  0
  6  7  1  0  0  0  0
  6  8  1  0  0  0  0
  8  9  1  0  0  0  0
  8 10  1  0  0  0  0
  8 11  1  0  0  0  0
 11 12  1  0  0  0  0
 11 13  1  0  0  0  0
 11 14  1  0  0  0  0
 14 15  1  0  0  0  0
 14 16  1  0  0  0  0
 14 17  1  0  0  0  0
M  END
> <VConfSearch Rank>
591

> <Conf_Id>
3

> <Delta U+W>
0.531

> <U+W>
-52.878

> <U>
10.067

> <W>
-62.945

> <W(PB)>
-64.982

> <W(SA)>
2.037

> <Valence>
2.779

> <Coulomb>
6.474

> <VdW>
0.815

> <VdW6>
-5.088

> <VdW12>
5.902

> <Bond>
0.078

> <Angle>
2.651

> <Pdih>
0.050

> <Idih>
0.000

> <Tether>
0.000

$$$$
VeraChem MOL file


 17 16  0  0  0  0  0  0  0  0999 V2000     
   21.2806   21.1177   23.9058 C   0  0  0  0  0  0  0  0  0  0  0  0
   22.4041   21.5808   23.8728 O   0  5  0  0  0  0  0  0  0  0  0  0
   20.5917   21.1268   24.9087 O   0  0  0  0  0  0  0  0  0  0  0  0
   20.7455   20.5222   22.6515 C   0  0  0  0  0  0  0  0  0  0  0  0
   21.4126   20.5469   21.7930 H   0  0  0  0  0  0  0  0  0  0  0  0
   19.5153   19.9702   22.5444 C   0  0  0  0  0  0  0  0  0  0  0  0
   18.8419   19.9380   23.4006 H   0  0  0  0  0  0  0  0  0  0  0  0
   18.9744   19.3623   21.2669 C   0  0  0  0  0  0  0  0  0  0  0  0
   19.5609   19.6977   20.4007 H   0  0  0  0  0  0  0  0  0  0  0  0
   17.9513   19.7259   21.1020 H   0  0  0  0  0  0  0  0  0  0  0  0
   18.9556   17.8187   21.3144 C   0  0  0  0  0  0  0  0  0  0  0  0
   18.3712   17.4823   22.1820 H   0  0  0  0  0  0  0  0  0  0  0  0
   18.4393   17.4389   20.4220 H   0  0  0  0  0  0  0  0  0  0  0  0
   20.3725   17.2090   21.3733 C   0  0  0  0  0  0  0  0  0  0  0  0
   20.8980   17.5154   22.2871 H   0  0  0  0  0  0  0  0  0  0  0  0
   20.3216   16.1126   21.3663 H   0  0  0  0  0  0  0  0  0  0  0  0
   20.9725   17.5263   20.5104 H   0  0  0  0  0  0  0  0  0  0  0  0
  1  2  1  0  0  0  0
  1  3  2  0  0  0  0
  1  4  1  0  0  0  0
  4  5  1  0  0  0  0
  4  6  2  0  0  0  0
  6  7  1  0  0  0  0
  6  8  1  0  0  0  0
  8  9  1  0  0  0  0
  8 10  1  0  0  0  0
  8 11  1  0  0  0  0
 11 12  1  0  0  0  0
 11 13  1  0  0  0  0
 11 14  1  0  0  0  0
 14 15  1  0  0  0  0
 14 16  1  0  0  0  0
 14 17  1  0  0  0  0
M  END
> <VConfSearch Rank>
592

> <Conf_Id>
45

> <Delta U+W>
0.562

> <U+W>
-52.846

> <U>
10.243

> <W>
-63.089

> <W(PB)>
-65.116

> <W(SA)>
2.026

> <Valence>
2.822

> <Coulomb>
6.637

> <VdW>
0.785

> <VdW6>
-5.216

> <VdW12>
6.001

> <Bond>
0.080

> <Angle>
2.678

> <Pdih>
0.064

> <Idih>
0.000

> <Tether>
0.000

$$$$
VeraChem MOL file


 17 16  0  0  0  0  0  0  0  0999 V2000     
   22.7586   17.7058   23.2314 C   0  0  0  0  0  0  0  0  0  0  0  0
   23.7279   17.2384   22.6660 O   0  5  0  0  0  0  0  0  0  0  0  0
   22.5339   17.5276   24.4138 O   0  0  0  0  0  0  0  0  0  0  0  0
   21.8210   18.5296   22.4212 C   0  0  0  0  0  0  0  0  0  0  0  0
   22.0800   18.6494   21.3717 H   0  0  0  0  0  0  0  0  0  0  0  0
   20.7044   19.1088   22.9180 C   0  0  0  0  0  0  0  0  0  0  0  0
   20.4342   18.9932   23.9675 H   0  0  0  0  0  0  0  0  0  0  0  0
   19.7549   19.9433   22.0866 C   0  0  0  0  0  0  0  0  0  0  0  0
   20.3209   20.5561   21.3718 H   0  0  0  0  0  0  0  0  0  0  0  0
   19.2134   20.6428   22.7377 H   0  0  0  0  0  0  0  0  0  0  0  0
   18.7454   19.0577   21.3279 C   0  0  0  0  0  0  0  0  0  0  0  0
   19.2854   18.3600   20.6728 H   0  0  0  0  0  0  0  0  0  0  0  0
   18.1791   18.4473   22.0451 H   0  0  0  0  0  0  0  0  0  0  0  0
   17.7678   19.9014   20.4853 C   0  0  0  0  0  0  0  0  0  0  0  0
   17.1913   20.5863   21.1209 H   0  0  0  0  0  0  0  0  0  0  0  0
   18.3073   20.4987   19.7386 H   0  0  0  0  0  0  0  0  0  0  0  0
   17.0581   19.2546   19.9533 H   0  0  0  0  0  0  0  0  0  0  0  0
  1  2  1  0  0  0  0
  1  3  2  0  0  0  0
  1  4  1  0  0  0  0
  4  5  1  0  0  0  0
  4  6  2  0  0  0  0
  6  7  1  0  0  0  0
  6  8  1  0  0  0  0
  8  9  1  0  0  0  0
  8 10  1  0  0  0  0
  8 11  1  0  0  0  0
 11 12  1  0  0  0  0
 11 13  1  0  0  0  0
 11 14  1  0  0  0  0
 14 15  1  0  0  0  0
 14 16  1  0  0  0  0
 14 17  1  0  0  0  0
M  END
> <VConfSearch Rank>
593

> <Conf_Id>
36

> <Delta U+W>
0.000

> <U+W>
-53.409

> <U>
9.048

> <W>
-62.457

> <W(PB)>
-64.540

> <W(SA)>
2.084

> <Valence>
2.652

> <Coulomb>
5.578

> <VdW>
0.818

> <VdW6>
-4.534

> <VdW12>
5.352

> <Bond>
0.063

> <Angle>
2.579

> <Pdih>
0.010

> <Idih>
0.000

> <Tether>
0.000

$$$$
VeraChem MOL file


 17 16  0  0  0  0  0  0  0  0999 V2000     
   22.3281   17.8711   19.7855 C   0  0  0  0  0  0  0  0  0  0  0  0
   23.2988   17.5704   20.4547 O   0  5  0  0  0  0  0  0  0  0  0  0
   22.3479   17.9012   18.5704 O   0  0  0  0  0  0  0  0  0  0  0  0
   21.0491   18.2199   20.4612 C   0  0  0  0  0  0  0  0  0  0  0  0
   20.2211   18.4788   19.8052 H   0  0  0  0  0  0  0  0  0  0  0  0
   20.8838   18.2292   21.8034 C   0  0  0  0  0  0  0  0  0  0  0  0
   21.7073   17.9736   22.4699 H   0  0  0  0  0  0  0  0  0  0  0  0
   19.5800   18.5869   22.4827 C   0  0  0  0  0  0  0  0  0  0  0  0
   19.5411   18.1171   23.4747 H   0  0  0  0  0  0  0  0  0  0  0  0
   18.7347   18.1803   21.9109 H   0  0  0  0  0  0  0  0  0  0  0  0
   19.4230   20.1144   22.6286 C   0  0  0  0  0  0  0  0  0  0  0  0
   20.2685   20.5184   23.2027 H   0  0  0  0  0  0  0  0  0  0  0  0
   19.4577   20.5857   21.6365 H   0  0  0  0  0  0  0  0  0  0  0  0
   18.1006   20.4870   23.3285 C   0  0  0  0  0  0  0  0  0  0  0  0
   18.0538   20.0540   24.3363 H   0  0  0  0  0  0  0  0  0  0  0  0
   18.0068   21.5767   23.4232 H   0  0  0  0  0  0  0  0  0  0  0  0
   17.2372   20.1210   22.7574 H   0  0  0  0  0  0  0  0  0  0  0  0
  1  2  1  0  0  0  0
  1  3  2  0  0  0  0
  1  4  1  0  0  0  0
  4  5  1  0  0  0  0
  4  6  2  0  0  0  0
  6  7  1  0  0  0  0
  6  8  1  0  0  0  0
  8  9  1  0  0  0  0
  8 10  1  0  0  0  0
  8 11  1  0  0  0  0
 11 12  1  0  0  0  0
 11 13  1  0  0  0  0
 11 14  1  0  0  0  0
 14 15  1  0  0  0  0
 14 16  1  0  0  0  0
 14 17  1  0  0  0  0
M  END
> <VConfSearch Rank>
594

> <Conf_Id>
1

> <Delta U+W>
0.030

> <U+W>
-53.378

> <U>
9.048

> <W>
-62.426

> <W(PB)>
-64.506

> <W(SA)>
2.080

> <Valence>
2.652

> <Coulomb>
5.578

> <VdW>
0.818

> <VdW6>
-4.535

> <VdW12>
5.352

> <Bond>
0.063

> <Angle>
2.579

> <Pdih>
0.010

> <Idih>
0.000

> <Tether>
0.000

$$$$
VeraChem MOL file


 17 16  0  0  0  0  0  0  0  0999 V2000     
   22.0462   18.2604   24.2174 C   0  0  0  0  0  0  0  0  0  0  0  0
   21.9037   19.1720   25.0105 O   0  5  0  0  0  0  0  0  0  0  0  0
   22.6092   17.2210   24.5010 O   0  0  0  0  0  0  0  0  0  0  0  0
   21.5200   18.4013   22.8327 C   0  0  0  0  0  0  0  0  0  0  0  0
   21.6815   17.5506   22.1746 H   0  0  0  0  0  0  0  0  0  0  0  0
   20.8727   19.4993   22.3805 C   0  0  0  0  0  0  0  0  0  0  0  0
   20.7025   20.3559   23.0323 H   0  0  0  0  0  0  0  0  0  0  0  0
   20.3365   19.6340   20.9708 C   0  0  0  0  0  0  0  0  0  0  0  0
   21.0599   19.2125   20.2598 H   0  0  0  0  0  0  0  0  0  0  0  0
   20.2346   20.6961   20.7105 H   0  0  0  0  0  0  0  0  0  0  0  0
   18.9764   18.9250   20.7892 C   0  0  0  0  0  0  0  0  0  0  0  0
   18.6893   18.9648   19.7294 H   0  0  0  0  0  0  0  0  0  0  0  0
   19.0755   17.8617   21.0477 H   0  0  0  0  0  0  0  0  0  0  0  0
   17.8579   19.5647   21.6392 C   0  0  0  0  0  0  0  0  0  0  0  0
   17.7323   20.6260   21.3885 H   0  0  0  0  0  0  0  0  0  0  0  0
   16.9003   19.0587   21.4606 H   0  0  0  0  0  0  0  0  0  0  0  0
   18.0831   19.4899   22.7111 H   0  0  0  0  0  0  0  0  0  0  0  0
  1  2  1  0  0  0  0
  1  3  2  0  0  0  0
  1  4  1  0  0  0  0
  4  5  1  0  0  0  0
  4  6  2  0  0  0  0
  6  7  1  0  0  0  0
  6  8  1  0  0  0  0
  8  9  1  0  0  0  0
  8 10  1  0  0  0  0
  8 11  1  0  0  0  0
 11 12  1  0  0  0  0
 11 13  1  0  0  0  0
 11 14  1  0  0  0  0
 14 15  1  0  0  0  0
 14 16  1  0  0  0  0
 14 17  1  0  0  0  0
M  END
> <VConfSearch Rank>
595

> <Conf_Id>
3

> <Delta U+W>
0.531

> <U+W>
-52.878

> <U>
10.067

> <W>
-62.945

> <W(PB)>
-64.982

> <W(SA)>
2.037

> <Valence>
2.779

> <Coulomb>
6.474

> <VdW>
0.815

> <VdW6>
-5.088

> <VdW12>
5.902

> <Bond>
0.078

> <Angle>
2.651

> <Pdih>
0.050

> <Idih>
0.000

> <Tether>
0.000

$$$$
VeraChem MOL file


 17 16  0  0  0  0  0  0  0  0999 V2000     
   19.0766   20.2885   19.4509 C   0  0  0  0  0  0  0  0  0  0  0  0
   19.7272   20.8511   18.5919 O   0  5  0  0  0  0  0  0  0  0  0  0
   17.8722   20.4217   19.5605 O   0  0  0  0  0  0  0  0  0  0  0  0
   19.8074   19.4010   20.3957 C   0  0  0  0  0  0  0  0  0  0  0  0
   20.8814   19.3269   20.2417 H   0  0  0  0  0  0  0  0  0  0  0  0
   19.2127   18.7161   21.3991 C   0  0  0  0  0  0  0  0  0  0  0  0
   18.1377   18.7875   21.5626 H   0  0  0  0  0  0  0  0  0  0  0  0
   19.9597   17.8155   22.3610 C   0  0  0  0  0  0  0  0  0  0  0  0
   20.9486   17.5563   21.9588 H   0  0  0  0  0  0  0  0  0  0  0  0
   19.4136   16.8681   22.4625 H   0  0  0  0  0  0  0  0  0  0  0  0
   20.1189   18.4540   23.7582 C   0  0  0  0  0  0  0  0  0  0  0  0
   19.1303   18.7160   24.1601 H   0  0  0  0  0  0  0  0  0  0  0  0
   20.5499   17.7120   24.4444 H   0  0  0  0  0  0  0  0  0  0  0  0
   21.0216   19.7060   23.7397 C   0  0  0  0  0  0  0  0  0  0  0  0
   20.5893   20.4969   23.1131 H   0  0  0  0  0  0  0  0  0  0  0  0
   21.1434   20.1090   24.7534 H   0  0  0  0  0  0  0  0  0  0  0  0
   22.0185   19.4653   23.3483 H   0  0  0  0  0  0  0  0  0  0  0  0
  1  2  1  0  0  0  0
  1  3  2  0  0  0  0
  1  4  1  0  0  0  0
  4  5  1  0  0  0  0
  4  6  2  0  0  0  0
  6  7  1  0  0  0  0
  6  8  1  0  0  0  0
  8  9  1  0  0  0  0
  8 10  1  0  0  0  0
  8 11  1  0  0  0  0
 11 12  1  0  0  0  0
 11 13  1  0  0  0  0
 11 14  1  0  0  0  0
 14 15  1  0  0  0  0
 14 16  1  0  0  0  0
 14 17  1  0  0  0  0
M  END
> <VConfSearch Rank>
596

> <Conf_Id>
45

> <Delta U+W>
0.562

> <U+W>
-52.846

> <U>
10.243

> <W>
-63.089

> <W(PB)>
-65.116

> <W(SA)>
2.026

> <Valence>
2.822

> <Coulomb>
6.637

> <VdW>
0.785

> <VdW6>
-5.216

> <VdW12>
6.001

> <Bond>
0.080

> <Angle>
2.678

> <Pdih>
0.064

> <Idih>
0.000

> <Tether>
0.000

$$$$
VeraChem MOL file


 17 16  0  0  0  0  0  0  0  0999 V2000     
   17.0616   19.4117   23.5560 C   0  0  0  0  0  0  0  0  0  0  0  0
   16.0261   19.9356   23.1941 O   0  5  0  0  0  0  0  0  0  0  0  0
   17.2707   19.0895   24.7105 O   0  0  0  0  0  0  0  0  0  0  0  0
   18.1035   19.1624   22.5232 C   0  0  0  0  0  0  0  0  0  0  0  0
   17.8532   19.4740   21.5117 H   0  0  0  0  0  0  0  0  0  0  0  0
   19.3007   18.5896   22.7833 C   0  0  0  0  0  0  0  0  0  0  0  0
   19.5627   18.2758   23.7936 H   0  0  0  0  0  0  0  0  0  0  0  0
   20.3557   18.3416   21.7275 C   0  0  0  0  0  0  0  0  0  0  0  0
   19.8806   18.0259   20.7886 H   0  0  0  0  0  0  0  0  0  0  0  0
   21.0045   17.5135   22.0432 H   0  0  0  0  0  0  0  0  0  0  0  0
   21.2104   19.6015   21.4804 C   0  0  0  0  0  0  0  0  0  0  0  0
   20.5633   20.4300   21.1604 H   0  0  0  0  0  0  0  0  0  0  0  0
   21.6862   19.9141   22.4204 H   0  0  0  0  0  0  0  0  0  0  0  0
   22.2945   19.3542   20.4121 C   0  0  0  0  0  0  0  0  0  0  0  0
   22.9755   18.5507   20.7220 H   0  0  0  0  0  0  0  0  0  0  0  0
   21.8428   19.0700   19.4526 H   0  0  0  0  0  0  0  0  0  0  0  0
   22.8917   20.2609   20.2501 H   0  0  0  0  0  0  0  0  0  0  0  0
  1  2  1  0  0  0  0
  1  3  2  0  0  0  0
  1  4  1  0  0  0  0
  4  5  1  0  0  0  0
  4  6  2  0  0  0  0
  6  7  1  0  0  0  0
  6  8  1  0  0  0  0
  8  9  1  0  0  0  0
  8 10  1  0  0  0  0
  8 11  1  0  0  0  0
 11 12  1  0  0  0  0
 11 13  1  0  0  0  0
 11 14  1  0  0  0  0
 14 15  1  0  0  0  0
 14 16  1  0  0  0  0
 14 17  1  0  0  0  0
M  END
> <VConfSearch Rank>
597

> <Conf_Id>
36

> <Delta U+W>
0.000

> <U+W>
-53.409

> <U>
9.048

> <W>
-62.457

> <W(PB)>
-64.540

> <W(SA)>
2.084

> <Valence>
2.652

> <Coulomb>
5.578

> <VdW>
0.818

> <VdW6>
-4.534

> <VdW12>
5.352

> <Bond>
0.063

> <Angle>
2.579

> <Pdih>
0.010

> <Idih>
0.000

> <Tether>
0.000

$$$$
VeraChem MOL file


 17 16  0  0  0  0  0  0  0  0999 V2000     
   19.7483   22.4419   22.2193 C   0  0  0  0  0  0  0  0  0  0  0  0
   18.5848   22.7245   22.0029 O   0  5  0  0  0  0  0  0  0  0  0  0
   20.6260   23.2787   22.3041 O   0  0  0  0  0  0  0  0  0  0  0  0
   20.1384   21.0165   22.3928 C   0  0  0  0  0  0  0  0  0  0  0  0
   21.1933   20.8329   22.5836 H   0  0  0  0  0  0  0  0  0  0  0  0
   19.2686   19.9832   22.3230 C   0  0  0  0  0  0  0  0  0  0  0  0
   18.2099   20.1555   22.1301 H   0  0  0  0  0  0  0  0  0  0  0  0
   19.6739   18.5361   22.4988 C   0  0  0  0  0  0  0  0  0  0  0  0
   18.8090   17.9505   22.8385 H   0  0  0  0  0  0  0  0  0  0  0  0
   20.4363   18.4524   23.2852 H   0  0  0  0  0  0  0  0  0  0  0  0
   20.2157   17.9405   21.1832 C   0  0  0  0  0  0  0  0  0  0  0  0
   19.4506   18.0233   20.3987 H   0  0  0  0  0  0  0  0  0  0  0  0
   21.0837   18.5227   20.8440 H   0  0  0  0  0  0  0  0  0  0  0  0
   20.6224   16.4627   21.3516 C   0  0  0  0  0  0  0  0  0  0  0  0
   19.7641   15.8516   21.6602 H   0  0  0  0  0  0  0  0  0  0  0  0
   21.0050   16.0567   20.4062 H   0  0  0  0  0  0  0  0  0  0  0  0
   21.4096   16.3559   22.1095 H   0  0  0  0  0  0  0  0  0  0  0  0
  1  2  1  0  0  0  0
  1  3  2  0  0  0  0
  1  4  1  0  0  0  0
  4  5  1  0  0  0  0
  4  6  2  0  0  0  0
  6  7  1  0  0  0  0
  6  8  1  0  0  0  0
  8  9  1  0  0  0  0
  8 10  1  0  0  0  0
  8 11  1  0  0  0  0
 11 12  1  0  0  0  0
 11 13  1  0  0  0  0
 11 14  1  0  0  0  0
 14 15  1  0  0  0  0
 14 16  1  0  0  0  0
 14 17  1  0  0  0  0
M  END
> <VConfSearch Rank>
598

> <Conf_Id>
1

> <Delta U+W>
0.030

> <U+W>
-53.378

> <U>
9.048

> <W>
-62.426

> <W(PB)>
-64.506

> <W(SA)>
2.080

> <Valence>
2.652

> <Coulomb>
5.578

> <VdW>
0.818

> <VdW6>
-4.535

> <VdW12>
5.352

> <Bond>
0.063

> <Angle>
2.579

> <Pdih>
0.010

> <Idih>
0.000

> <Tether>
0.000

$$$$
VeraChem MOL file


 17 16  0  0  0  0  0  0  0  0999 V2000     
   21.2755   21.8235   22.7072 C   0  0  0  0  0  0  0  0  0  0  0  0
   20.7404   22.5189   21.8642 O   0  5  0  0  0  0  0  0  0  0  0  0
   21.8498   22.2837   23.6747 O   0  0  0  0  0  0  0  0  0  0  0  0
   21.2421   20.3424   22.5680 C   0  0  0  0  0  0  0  0  0  0  0  0
   21.7398   19.7803   23.3548 H   0  0  0  0  0  0  0  0  0  0  0  0
   20.6390   19.6950   21.5452 C   0  0  0  0  0  0  0  0  0  0  0  0
   20.1346   20.2482   20.7533 H   0  0  0  0  0  0  0  0  0  0  0  0
   20.6058   18.1870   21.4122 C   0  0  0  0  0  0  0  0  0  0  0  0
   21.5817   17.7706   21.6962 H   0  0  0  0  0  0  0  0  0  0  0  0
   20.4482   17.9087   20.3615 H   0  0  0  0  0  0  0  0  0  0  0  0
   19.5071   17.5440   22.2870 C   0  0  0  0  0  0  0  0  0  0  0  0
   19.5986   16.4505   22.2323 H   0  0  0  0  0  0  0  0  0  0  0  0
   19.6628   17.8197   23.3392 H   0  0  0  0  0  0  0  0  0  0  0  0
   18.0855   17.9539   21.8470 C   0  0  0  0  0  0  0  0  0  0  0  0
   17.9028   17.6764   20.8007 H   0  0  0  0  0  0  0  0  0  0  0  0
   17.3304   17.4537   22.4671 H   0  0  0  0  0  0  0  0  0  0  0  0
   17.9374   19.0373   21.9452 H   0  0  0  0  0  0  0  0  0  0  0  0
  1  2  1  0  0  0  0
  1  3  2  0  0  0  0
  1  4  1  0  0  0  0
  4  5  1  0  0  0  0
  4  6  2  0  0  0  0
  6  7  1  0  0  0  0
  6  8  1  0  0  0  0
  8  9  1  0  0  0  0
  8 10  1  0  0  0  0
  8 11  1  0  0  0  0
 11 12  1  0  0  0  0
 11 13  1  0  0  0  0
 11 14  1  0  0  0  0
 14 15  1  0  0  0  0
 14 16  1  0  0  0  0
 14 17  1  0  0  0  0
M  END
> <VConfSearch Rank>
599

> <Conf_Id>
3

> <Delta U+W>
0.531

> <U+W>
-52.878

> <U>
10.067

> <W>
-62.945

> <W(PB)>
-64.982

> <W(SA)>
2.037

> <Valence>
2.779

> <Coulomb>
6.474

> <VdW>
0.815

> <VdW6>
-5.088

> <VdW12>
5.902

> <Bond>
0.078

> <Angle>
2.651

> <Pdih>
0.050

> <Idih>
0.000

> <Tether>
0.000

$$$$
VeraChem MOL file


 17 16  0  0  0  0  0  0  0  0999 V2000     
   22.5178   20.2779   20.9479 C   0  0  0  0  0  0  0  0  0  0  0  0
   22.9408   21.4156   21.0157 O   0  5  0  0  0  0  0  0  0  0  0  0
   22.8832   19.4871   20.0985 O   0  0  0  0  0  0  0  0  0  0  0  0
   21.5127   19.8568   21.9611 C   0  0  0  0  0  0  0  0  0  0  0  0
   21.2304   20.6120   22.6909 H   0  0  0  0  0  0  0  0  0  0  0  0
   20.9565   18.6246   22.0038 C   0  0  0  0  0  0  0  0  0  0  0  0
   21.2308   17.8631   21.2742 H   0  0  0  0  0  0  0  0  0  0  0  0
   19.9313   18.1997   23.0348 C   0  0  0  0  0  0  0  0  0  0  0  0
   19.9365   18.8877   23.8912 H   0  0  0  0  0  0  0  0  0  0  0  0
   20.2102   17.2149   23.4328 H   0  0  0  0  0  0  0  0  0  0  0  0
   18.5065   18.1163   22.4449 C   0  0  0  0  0  0  0  0  0  0  0  0
   18.5010   17.4303   21.5865 H   0  0  0  0  0  0  0  0  0  0  0  0
   17.8320   17.6837   23.1966 H   0  0  0  0  0  0  0  0  0  0  0  0
   17.9608   19.4943   22.0133 C   0  0  0  0  0  0  0  0  0  0  0  0
   18.5743   19.9309   21.2145 H   0  0  0  0  0  0  0  0  0  0  0  0
   16.9340   19.4020   21.6363 H   0  0  0  0  0  0  0  0  0  0  0  0
   17.9501   20.1946   22.8586 H   0  0  0  0  0  0  0  0  0  0  0  0
  1  2  1  0  0  0  0
  1  3  2  0  0  0  0
  1  4  1  0  0  0  0
  4  5  1  0  0  0  0
  4  6  2  0  0  0  0
  6  7  1  0  0  0  0
  6  8  1  0  0  0  0
  8  9  1  0  0  0  0
  8 10  1  0  0  0  0
  8 11  1  0  0  0  0
 11 12  1  0  0  0  0
 11 13  1  0  0  0  0
 11 14  1  0  0  0  0
 14 15  1  0  0  0  0
 14 16  1  0  0  0  0
 14 17  1  0  0  0  0
M  END
> <VConfSearch Rank>
600

> <Conf_Id>
45

> <Delta U+W>
0.562

> <U+W>
-52.846

> <U>
10.243

> <W>
-63.089

> <W(PB)>
-65.116

> <W(SA)>
2.026

> <Valence>
2.822

> <Coulomb>
6.637

> <VdW>
0.785

> <VdW6>
-5.216

> <VdW12>
6.001

> <Bond>
0.080

> <Angle>
2.678

> <Pdih>
0.064

> <Idih>
0.000

> <Tether>
0.000

$$$$
VeraChem MOL file


 17 16  0  0  0  0  0  0  0  0999 V2000     
   17.3793   20.5738   23.4710 C   0  0  0  0  0  0  0  0  0  0  0  0
   17.2967   20.9889   24.6105 O   0  5  0  0  0  0  0  0  0  0  0  0
   16.4097   20.4177   22.7528 O   0  0  0  0  0  0  0  0  0  0  0  0
   18.7366   20.2507   22.9537 C   0  0  0  0  0  0  0  0  0  0  0  0
   19.5594   20.4128   23.6463 H   0  0  0  0  0  0  0  0  0  0  0  0
   18.9765   19.7805   21.7085 C   0  0  0  0  0  0  0  0  0  0  0  0
   18.1593   19.6122   21.0074 H   0  0  0  0  0  0  0  0  0  0  0  0
   20.3598   19.4523   21.1910 C   0  0  0  0  0  0  0  0  0  0  0  0
   21.0837   20.1923   21.5587 H   0  0  0  0  0  0  0  0  0  0  0  0
   20.3691   19.5240   20.0950 H   0  0  0  0  0  0  0  0  0  0  0  0
   20.7989   18.0371   21.6194 C   0  0  0  0  0  0  0  0  0  0  0  0
   20.7942   17.9650   22.7159 H   0  0  0  0  0  0  0  0  0  0  0  0
   20.0745   17.2986   21.2488 H   0  0  0  0  0  0  0  0  0  0  0  0
   22.2044   17.6912   21.0878 C   0  0  0  0  0  0  0  0  0  0  0  0
   22.2288   17.7248   19.9907 H   0  0  0  0  0  0  0  0  0  0  0  0
   22.9535   18.3975   21.4694 H   0  0  0  0  0  0  0  0  0  0  0  0
   22.4993   16.6817   21.4026 H   0  0  0  0  0  0  0  0  0  0  0  0
  1  2  1  0  0  0  0
  1  3  2  0  0  0  0
  1  4  1  0  0  0  0
  4  5  1  0  0  0  0
  4  6  2  0  0  0  0
  6  7  1  0  0  0  0
  6  8  1  0  0  0  0
  8  9  1  0  0  0  0
  8 10  1  0  0  0  0
  8 11  1  0  0  0  0
 11 12  1  0  0  0  0
 11 13  1  0  0  0  0
 11 14  1  0  0  0  0
 14 15  1  0  0  0  0
 14 16  1  0  0  0  0
 14 17  1  0  0  0  0
M  END
> <VConfSearch Rank>
601

> <Conf_Id>
36

> <Delta U+W>
0.000

> <U+W>
-53.409

> <U>
9.048

> <W>
-62.457

> <W(PB)>
-64.540

> <W(SA)>
2.084

> <Valence>
2.652

> <Coulomb>
5.578

> <VdW>
0.818

> <VdW6>
-4.534

> <VdW12>
5.352

> <Bond>
0.063

> <Angle>
2.579

> <Pdih>
0.010

> <Idih>
0.000

> <Tether>
0.000

$$$$
VeraChem MOL file


 17 16  0  0  0  0  0  0  0  0999 V2000     
   23.0738   18.6617   20.5610 C   0  0  0  0  0  0  0  0  0  0  0  0
   23.0035   17.6894   19.8330 O   0  5  0  0  0  0  0  0  0  0  0  0
   24.1282   19.1875   20.8600 O   0  0  0  0  0  0  0  0  0  0  0  0
   21.8279   19.2521   21.1209 C   0  0  0  0  0  0  0  0  0  0  0  0
   21.9609   20.1194   21.7636 H   0  0  0  0  0  0  0  0  0  0  0  0
   20.5885   18.7707   20.8738 C   0  0  0  0  0  0  0  0  0  0  0  0
   20.4439   17.9010   20.2332 H   0  0  0  0  0  0  0  0  0  0  0  0
   19.3266   19.3760   21.4488 C   0  0  0  0  0  0  0  0  0  0  0  0
   18.4740   19.1341   20.8001 H   0  0  0  0  0  0  0  0  0  0  0  0
   19.4080   20.4715   21.4625 H   0  0  0  0  0  0  0  0  0  0  0  0
   19.0536   18.8565   22.8752 C   0  0  0  0  0  0  0  0  0  0  0  0
   18.9705   17.7609   22.8586 H   0  0  0  0  0  0  0  0  0  0  0  0
   19.9041   19.1013   23.5266 H   0  0  0  0  0  0  0  0  0  0  0  0
   17.7639   19.4618   23.4649 C   0  0  0  0  0  0  0  0  0  0  0  0
   16.8920   19.2050   22.8491 H   0  0  0  0  0  0  0  0  0  0  0  0
   17.5864   19.0807   24.4791 H   0  0  0  0  0  0  0  0  0  0  0  0
   17.8336   20.5560   23.5215 H   0  0  0  0  0  0  0  0  0  0  0  0
  1  2  1  0  0  0  0
  1  3  2  0  0  0  0
  1  4  1  0  0  0  0
  4  5  1  0  0  0  0
  4  6  2  0  0  0  0
  6  7  1  0  0  0  0
  6  8  1  0  0  0  0
  8  9  1  0  0  0  0
  8 10  1  0  0  0  0
  8 11  1  0  0  0  0
 11 12  1  0  0  0  0
 11 13  1  0  0  0  0
 11 14  1  0  0  0  0
 14 15  1  0  0  0  0
 14 16  1  0  0  0  0
 14 17  1  0  0  0  0
M  END
> <VConfSearch Rank>
602

> <Conf_Id>
1

> <Delta U+W>
0.030

> <U+W>
-53.378

> <U>
9.048

> <W>
-62.426

> <W(PB)>
-64.506

> <W(SA)>
2.080

> <Valence>
2.652

> <Coulomb>
5.578

> <VdW>
0.818

> <VdW6>
-4.535

> <VdW12>
5.352

> <Bond>
0.063

> <Angle>
2.579

> <Pdih>
0.010

> <Idih>
0.000

> <Tether>
0.000

$$$$
VeraChem MOL file


 17 16  0  0  0  0  0  0  0  0999 V2000     
   21.9595   19.0749   24.4431 C   0  0  0  0  0  0  0  0  0  0  0  0
   23.0079   19.3173   23.8752 O   0  5  0  0  0  0  0  0  0  0  0  0
   21.8241   19.1697   25.6474 O   0  0  0  0  0  0  0  0  0  0  0  0
   20.7780   18.6382   23.6509 C   0  0  0  0  0  0  0  0  0  0  0  0
   19.8731   18.4369   24.2198 H   0  0  0  0  0  0  0  0  0  0  0  0
   20.7845   18.4913   22.3066 C   0  0  0  0  0  0  0  0  0  0  0  0
   21.6846   18.6935   21.7265 H   0  0  0  0  0  0  0  0  0  0  0  0
   19.5768   18.0501   21.5066 C   0  0  0  0  0  0  0  0  0  0  0  0
   19.0507   17.2501   22.0449 H   0  0  0  0  0  0  0  0  0  0  0  0
   19.9008   17.6149   20.5517 H   0  0  0  0  0  0  0  0  0  0  0  0
   18.5939   19.2108   21.2380 C   0  0  0  0  0  0  0  0  0  0  0  0
   17.6934   18.8133   20.7499 H   0  0  0  0  0  0  0  0  0  0  0  0
   18.2669   19.6476   22.1918 H   0  0  0  0  0  0  0  0  0  0  0  0
   19.2074   20.3108   20.3457 C   0  0  0  0  0  0  0  0  0  0  0  0
   19.5302   19.8990   19.3806 H   0  0  0  0  0  0  0  0  0  0  0  0
   18.4724   21.1017   20.1478 H   0  0  0  0  0  0  0  0  0  0  0  0
   20.0775   20.7737   20.8293 H   0  0  0  0  0  0  0  0  0  0  0  0
  1  2  1  0  0  0  0
  1  3  2  0  0  0  0
  1  4  1  0  0  0  0
  4  5  1  0  0  0  0
  4  6  2  0  0  0  0
  6  7  1  0  0  0  0
  6  8  1  0  0  0  0
  8  9  1  0  0  0  0
  8 10  1  0  0  0  0
  8 11  1  0  0  0  0
 11 12  1  0  0  0  0
 11 13  1  0  0  0  0
 11 14  1  0  0  0  0
 14 15  1  0  0  0  0
 14 16  1  0  0  0  0
 14 17  1  0  0  0  0
M  END
> <VConfSearch Rank>
603

> <Conf_Id>
3

> <Delta U+W>
0.531

> <U+W>
-52.878

> <U>
10.067

> <W>
-62.945

> <W(PB)>
-64.982

> <W(SA)>
2.037

> <Valence>
2.779

> <Coulomb>
6.474

> <VdW>
0.815

> <VdW6>
-5.088

> <VdW12>
5.902

> <Bond>
0.078

> <Angle>
2.651

> <Pdih>
0.050

> <Idih>
0.000

> <Tether>
0.000

$$$$
VeraChem MOL file


 17 16  0  0  0  0  0  0  0  0999 V2000     
   20.2798   17.8395   24.8040 C   0  0  0  0  0  0  0  0  0  0  0  0
   19.9031   16.7544   25.2021 O   0  5  0  0  0  0  0  0  0  0  0  0
   20.5407   18.7631   25.5519 O   0  0  0  0  0  0  0  0  0  0  0  0
   20.4235   18.0204   23.3341 C   0  0  0  0  0  0  0  0  0  0  0  0
   20.1742   17.1556   22.7236 H   0  0  0  0  0  0  0  0  0  0  0  0
   20.8301   19.1721   22.7527 C   0  0  0  0  0  0  0  0  0  0  0  0
   21.0783   20.0444   23.3567 H   0  0  0  0  0  0  0  0  0  0  0  0
   20.9727   19.3540   21.2558 C   0  0  0  0  0  0  0  0  0  0  0  0
   21.0067   18.3797   20.7496 H   0  0  0  0  0  0  0  0  0  0  0  0
   21.9336   19.8417   21.0440 H   0  0  0  0  0  0  0  0  0  0  0  0
   19.8343   20.2097   20.6582 C   0  0  0  0  0  0  0  0  0  0  0  0
   19.7979   21.1836   21.1659 H   0  0  0  0  0  0  0  0  0  0  0  0
   20.0565   20.4146   19.6019 H   0  0  0  0  0  0  0  0  0  0  0  0
   18.4573   19.5193   20.7577 C   0  0  0  0  0  0  0  0  0  0  0  0
   18.1708   19.3559   21.8047 H   0  0  0  0  0  0  0  0  0  0  0  0
   17.6807   20.1376   20.2892 H   0  0  0  0  0  0  0  0  0  0  0  0
   18.4685   18.5462   20.2498 H   0  0  0  0  0  0  0  0  0  0  0  0
  1  2  1  0  0  0  0
  1  3  2  0  0  0  0
  1  4  1  0  0  0  0
  4  5  1  0  0  0  0
  4  6  2  0  0  0  0
  6  7  1  0  0  0  0
  6  8  1  0  0  0  0
  8  9  1  0  0  0  0
  8 10  1  0  0  0  0
  8 11  1  0  0  0  0
 11 12  1  0  0  0  0
 11 13  1  0  0  0  0
 11 14  1  0  0  0  0
 14 15  1  0  0  0  0
 14 16  1  0  0  0  0
 14 17  1  0  0  0  0
M  END
> <VConfSearch Rank>
604

> <Conf_Id>
45

> <Delta U+W>
0.562

> <U+W>
-52.846

> <U>
10.243

> <W>
-63.089

> <W(PB)>
-65.116

> <W(SA)>
2.026

> <Valence>
2.822

> <Coulomb>
6.637

> <VdW>
0.785

> <VdW6>
-5.216

> <VdW12>
6.001

> <Bond>
0.080

> <Angle>
2.678

> <Pdih>
0.064

> <Idih>
0.000

> <Tether>
0.000

$$$$
VeraChem MOL file


 17 16  0  0  0  0  0  0  0  0999 V2000     
   16.9963   17.6089   22.2604 C   0  0  0  0  0  0  0  0  0  0  0  0
   16.2008   17.6795   23.1768 O   0  5  0  0  0  0  0  0  0  0  0  0
   16.9215   16.7682   21.3839 O   0  0  0  0  0  0  0  0  0  0  0  0
   18.1004   18.6060   22.2299 C   0  0  0  0  0  0  0  0  0  0  0  0
   18.1093   19.3292   23.0423 H   0  0  0  0  0  0  0  0  0  0  0  0
   19.0549   18.6447   21.2726 C   0  0  0  0  0  0  0  0  0  0  0  0
   19.0568   17.9235   20.4555 H   0  0  0  0  0  0  0  0  0  0  0  0
   20.1756   19.6609   21.2502 C   0  0  0  0  0  0  0  0  0  0  0  0
   19.8009   20.6407   21.5765 H   0  0  0  0  0  0  0  0  0  0  0  0
   20.5339   19.7907   20.2200 H   0  0  0  0  0  0  0  0  0  0  0  0
   21.3476   19.2248   22.1531 C   0  0  0  0  0  0  0  0  0  0  0  0
   20.9917   19.0986   23.1851 H   0  0  0  0  0  0  0  0  0  0  0  0
   21.7220   18.2457   21.8235 H   0  0  0  0  0  0  0  0  0  0  0  0
   22.4983   20.2509   22.1285 C   0  0  0  0  0  0  0  0  0  0  0  0
   22.8945   20.3727   21.1118 H   0  0  0  0  0  0  0  0  0  0  0  0
   22.1572   21.2323   22.4835 H   0  0  0  0  0  0  0  0  0  0  0  0
   23.3221   19.9238   22.7762 H   0  0  0  0  0  0  0  0  0  0  0  0
  1  2  1  0  0  0  0
  1  3  2  0  0  0  0
  1  4  1  0  0  0  0
  4  5  1  0  0  0  0
  4  6  2  0  0  0  0
  6  7  1  0  0  0  0
  6  8  1  0  0  0  0
  8  9  1  0  0  0  0
  8 10  1  0  0  0  0
  8 11  1  0  0  0  0
 11 12  1  0  0  0  0
 11 13  1  0  0  0  0
 11 14  1  0  0  0  0
 14 15  1  0  0  0  0
 14 16  1  0  0  0  0
 14 17  1  0  0  0  0
M  END
> <VConfSearch Rank>
605

> <Conf_Id>
36

> <Delta U+W>
0.000

> <U+W>
-53.409

> <U>
9.048

> <W>
-62.457

> <W(PB)>
-64.540

> <W(SA)>
2.084

> <Valence>
2.652

> <Coulomb>
5.578

> <VdW>
0.818

> <VdW6>
-4.534

> <VdW12>
5.352

> <Bond>
0.063

> <Angle>
2.579

> <Pdih>
0.010

> <Idih>
0.000

> <Tether>
0.000

$$$$
VeraChem MOL file


 17 16  0  0  0  0  0  0  0  0999 V2000     
   22.9544   18.5490   23.4744 C   0  0  0  0  0  0  0  0  0  0  0  0
   23.7356   18.1570   22.6279 O   0  5  0  0  0  0  0  0  0  0  0  0
   23.1986   18.5140   24.6647 O   0  0  0  0  0  0  0  0  0  0  0  0
   21.6365   19.1009   23.0588 C   0  0  0  0  0  0  0  0  0  0  0  0
   20.9859   19.4335   23.8644 H   0  0  0  0  0  0  0  0  0  0  0  0
   21.2323   19.1989   21.7719 C   0  0  0  0  0  0  0  0  0  0  0  0
   21.8753   18.8667   20.9571 H   0  0  0  0  0  0  0  0  0  0  0  0
   19.8894   19.7598   21.3579 C   0  0  0  0  0  0  0  0  0  0  0  0
   19.9524   20.1448   20.3312 H   0  0  0  0  0  0  0  0  0  0  0  0
   19.6263   20.6141   21.9964 H   0  0  0  0  0  0  0  0  0  0  0  0
   18.7832   18.6881   21.4404 C   0  0  0  0  0  0  0  0  0  0  0  0
   19.0476   17.8357   20.7993 H   0  0  0  0  0  0  0  0  0  0  0  0
   18.7161   18.3048   22.4681 H   0  0  0  0  0  0  0  0  0  0  0  0
   17.4128   19.2496   21.0111 C   0  0  0  0  0  0  0  0  0  0  0  0
   17.4434   19.6113   19.9749 H   0  0  0  0  0  0  0  0  0  0  0  0
   16.6392   18.4734   21.0762 H   0  0  0  0  0  0  0  0  0  0  0  0
   17.1105   20.0843   21.6570 H   0  0  0  0  0  0  0  0  0  0  0  0
  1  2  1  0  0  0  0
  1  3  2  0  0  0  0
  1  4  1  0  0  0  0
  4  5  1  0  0  0  0
  4  6  2  0  0  0  0
  6  7  1  0  0  0  0
  6  8  1  0  0  0  0
  8  9  1  0  0  0  0
  8 10  1  0  0  0  0
  8 11  1  0  0  0  0
 11 12  1  0  0  0  0
 11 13  1  0  0  0  0
 11 14  1  0  0  0  0
 14 15  1  0  0  0  0
 14 16  1  0  0  0  0
 14 17  1  0  0  0  0
M  END
> <VConfSearch Rank>
606

> <Conf_Id>
1

> <Delta U+W>
0.030

> <U+W>
-53.378

> <U>
9.048

> <W>
-62.426

> <W(PB)>
-64.506

> <W(SA)>
2.080

> <Valence>
2.652

> <Coulomb>
5.578

> <VdW>
0.818

> <VdW6>
-4.535

> <VdW12>
5.352

> <Bond>
0.063

> <Angle>
2.579

> <Pdih>
0.010

> <Idih>
0.000

> <Tether>
0.000

$$$$
VeraChem MOL file


 17 16  0  0  0  0  0  0  0  0999 V2000     
   20.4059   16.0413   21.7915 C   0  0  0  0  0  0  0  0  0  0  0  0
   19.6424   15.6489   22.6538 O   0  5  0  0  0  0  0  0  0  0  0  0
   20.8582   15.3132   20.9295 O   0  0  0  0  0  0  0  0  0  0  0  0
   20.8219   17.4698   21.7723 C   0  0  0  0  0  0  0  0  0  0  0  0
   21.5061   17.7544   20.9763 H   0  0  0  0  0  0  0  0  0  0  0  0
   20.3970   18.3906   22.6671 C   0  0  0  0  0  0  0  0  0  0  0  0
   19.7088   18.1171   23.4666 H   0  0  0  0  0  0  0  0  0  0  0  0
   20.8217   19.8438   22.6389 C   0  0  0  0  0  0  0  0  0  0  0  0
   21.8910   19.9104   22.3969 H   0  0  0  0  0  0  0  0  0  0  0  0
   20.7056   20.2857   23.6377 H   0  0  0  0  0  0  0  0  0  0  0  0
   20.0178   20.6711   21.6117 C   0  0  0  0  0  0  0  0  0  0  0  0
   20.4377   21.6851   21.5597 H   0  0  0  0  0  0  0  0  0  0  0  0
   20.1330   20.2321   20.6110 H   0  0  0  0  0  0  0  0  0  0  0  0
   18.5191   20.7634   21.9696 C   0  0  0  0  0  0  0  0  0  0  0  0
   18.3792   21.2115   22.9620 H   0  0  0  0  0  0  0  0  0  0  0  0
   17.9855   21.3848   21.2388 H   0  0  0  0  0  0  0  0  0  0  0  0
   18.0507   19.7705   21.9726 H   0  0  0  0  0  0  0  0  0  0  0  0
  1  2  1  0  0  0  0
  1  3  2  0  0  0  0
  1  4  1  0  0  0  0
  4  5  1  0  0  0  0
  4  6  2  0  0  0  0
  6  7  1  0  0  0  0
  6  8  1  0  0  0  0
  8  9  1  0  0  0  0
  8 10  1  0  0  0  0
  8 11  1  0  0  0  0
 11 12  1  0  0  0  0
 11 13  1  0  0  0  0
 11 14  1  0  0  0  0
 14 15  1  0  0  0  0
 14 16  1  0  0  0  0
 14 17  1  0  0  0  0
M  END
> <VConfSearch Rank>
607

> <Conf_Id>
3

> <Delta U+W>
0.531

> <U+W>
-52.878

> <U>
10.067

> <W>
-62.945

> <W(PB)>
-64.982

> <W(SA)>
2.037

> <Valence>
2.779

> <Coulomb>
6.474

> <VdW>
0.815

> <VdW6>
-5.088

> <VdW12>
5.902

> <Bond>
0.078

> <Angle>
2.651

> <Pdih>
0.050

> <Idih>
0.000

> <Tether>
0.000

$$$$
VeraChem MOL file


 17 16  0  0  0  0  0  0  0  0999 V2000     
   20.1207   21.2559   19.9677 C   0  0  0  0  0  0  0  0  0  0  0  0
   21.0037   22.0602   19.7412 O   0  5  0  0  0  0  0  0  0  0  0  0
   18.9720   21.4152   19.5994 O   0  0  0  0  0  0  0  0  0  0  0  0
   20.4861   20.0297   20.7272 C   0  0  0  0  0  0  0  0  0  0  0  0
   21.5288   19.9503   21.0257 H   0  0  0  0  0  0  0  0  0  0  0  0
   19.6071   19.0540   21.0513 C   0  0  0  0  0  0  0  0  0  0  0  0
   18.5598   19.1274   20.7593 H   0  0  0  0  0  0  0  0  0  0  0  0
   19.9815   17.8081   21.8270 C   0  0  0  0  0  0  0  0  0  0  0  0
   21.0697   17.6582   21.8156 H   0  0  0  0  0  0  0  0  0  0  0  0
   19.5474   16.9314   21.3282 H   0  0  0  0  0  0  0  0  0  0  0  0
   19.4794   17.8536   23.2868 C   0  0  0  0  0  0  0  0  0  0  0  0
   18.3913   18.0062   23.2993 H   0  0  0  0  0  0  0  0  0  0  0  0
   19.6651   16.8796   23.7603 H   0  0  0  0  0  0  0  0  0  0  0  0
   20.1690   18.9564   24.1181 C   0  0  0  0  0  0  0  0  0  0  0  0
   19.9523   19.9528   23.7115 H   0  0  0  0  0  0  0  0  0  0  0  0
   19.8169   18.9335   25.1575 H   0  0  0  0  0  0  0  0  0  0  0  0
   21.2581   18.8191   24.1257 H   0  0  0  0  0  0  0  0  0  0  0  0
  1  2  1  0  0  0  0
  1  3  2  0  0  0  0
  1  4  1  0  0  0  0
  4  5  1  0  0  0  0
  4  6  2  0  0  0  0
  6  7  1  0  0  0  0
  6  8  1  0  0  0  0
  8  9  1  0  0  0  0
  8 10  1  0  0  0  0
  8 11  1  0  0  0  0
 11 12  1  0  0  0  0
 11 13  1  0  0  0  0
 11 14  1  0  0  0  0
 14 15  1  0  0  0  0
 14 16  1  0  0  0  0
 14 17  1  0  0  0  0
M  END
> <VConfSearch Rank>
608

> <Conf_Id>
45

> <Delta U+W>
0.562

> <U+W>
-52.846

> <U>
10.243

> <W>
-63.089

> <W(PB)>
-65.116

> <W(SA)>
2.026

> <Valence>
2.822

> <Coulomb>
6.637

> <VdW>
0.785

> <VdW6>
-5.216

> <VdW12>
6.001

> <Bond>
0.080

> <Angle>
2.678

> <Pdih>
0.064

> <Idih>
0.000

> <Tether>
0.000

$$$$
VeraChem MOL file


 17 16  0  0  0  0  0  0  0  0999 V2000     
   17.4392   19.6989   24.0389 C   0  0  0  0  0  0  0  0  0  0  0  0
   16.2640   19.4088   23.9272 O   0  5  0  0  0  0  0  0  0  0  0  0
   17.8510   20.4749   24.8808 O   0  0  0  0  0  0  0  0  0  0  0  0
   18.3971   19.0631   23.0943 C   0  0  0  0  0  0  0  0  0  0  0  0
   17.9639   18.3800   22.3672 H   0  0  0  0  0  0  0  0  0  0  0  0
   19.7296   19.2941   23.1028 C   0  0  0  0  0  0  0  0  0  0  0  0
   20.1738   19.9785   23.8253 H   0  0  0  0  0  0  0  0  0  0  0  0
   20.6967   18.6451   22.1370 C   0  0  0  0  0  0  0  0  0  0  0  0
   20.4044   17.6015   21.9573 H   0  0  0  0  0  0  0  0  0  0  0  0
   21.6994   18.6160   22.5844 H   0  0  0  0  0  0  0  0  0  0  0  0
   20.7510   19.4085   20.7979 C   0  0  0  0  0  0  0  0  0  0  0  0
   19.7493   19.4349   20.3469 H   0  0  0  0  0  0  0  0  0  0  0  0
   21.0456   20.4514   20.9801 H   0  0  0  0  0  0  0  0  0  0  0  0
   21.7417   18.7586   19.8112 C   0  0  0  0  0  0  0  0  0  0  0  0
   22.7587   18.7483   20.2250 H   0  0  0  0  0  0  0  0  0  0  0  0
   21.4517   17.7235   19.5880 H   0  0  0  0  0  0  0  0  0  0  0  0
   21.7665   19.3150   18.8652 H   0  0  0  0  0  0  0  0  0  0  0  0
  1  2  1  0  0  0  0
  1  3  2  0  0  0  0
  1  4  1  0  0  0  0
  4  5  1  0  0  0  0
  4  6  2  0  0  0  0
  6  7  1  0  0  0  0
  6  8  1  0  0  0  0
  8  9  1  0  0  0  0
  8 10  1  0  0  0  0
  8 11  1  0  0  0  0
 11 12  1  0  0  0  0
 11 13  1  0  0  0  0
 11 14  1  0  0  0  0
 14 15  1  0  0  0  0
 14 16  1  0  0  0  0
 14 17  1  0  0  0  0
M  END
> <VConfSearch Rank>
609

> <Conf_Id>
36

> <Delta U+W>
0.000

> <U+W>
-53.409

> <U>
9.048

> <W>
-62.457

> <W(PB)>
-64.540

> <W(SA)>
2.084

> <Valence>
2.652

> <Coulomb>
5.578

> <VdW>
0.818

> <VdW6>
-4.534

> <VdW12>
5.352

> <Bond>
0.063

> <Angle>
2.579

> <Pdih>
0.010

> <Idih>
0.000

> <Tether>
0.000

$$$$
VeraChem MOL file


 17 16  0  0  0  0  0  0  0  0999 V2000     
   17.9868   18.0006   19.4492 C   0  0  0  0  0  0  0  0  0  0  0  0
   16.8953   18.5026   19.6419 O   0  5  0  0  0  0  0  0  0  0  0  0
   18.1724   17.1168   18.6354 O   0  0  0  0  0  0  0  0  0  0  0  0
   19.1615   18.4735   20.2306 C   0  0  0  0  0  0  0  0  0  0  0  0
   20.1070   17.9835   20.0095 H   0  0  0  0  0  0  0  0  0  0  0  0
   19.1011   19.4469   21.1676 C   0  0  0  0  0  0  0  0  0  0  0  0
   18.1586   19.9430   21.3985 H   0  0  0  0  0  0  0  0  0  0  0  0
   20.3003   19.9207   21.9592 C   0  0  0  0  0  0  0  0  0  0  0  0
   20.1313   20.9505   22.3018 H   0  0  0  0  0  0  0  0  0  0  0  0
   21.1892   19.9478   21.3143 H   0  0  0  0  0  0  0  0  0  0  0  0
   20.5668   19.0095   23.1748 C   0  0  0  0  0  0  0  0  0  0  0  0
   19.6771   18.9857   23.8195 H   0  0  0  0  0  0  0  0  0  0  0  0
   20.7401   17.9795   22.8335 H   0  0  0  0  0  0  0  0  0  0  0  0
   21.7822   19.4912   23.9924 C   0  0  0  0  0  0  0  0  0  0  0  0
   21.6216   20.5084   24.3730 H   0  0  0  0  0  0  0  0  0  0  0  0
   21.9560   18.8312   24.8522 H   0  0  0  0  0  0  0  0  0  0  0  0
   22.6923   19.4944   23.3783 H   0  0  0  0  0  0  0  0  0  0  0  0
  1  2  1  0  0  0  0
  1  3  2  0  0  0  0
  1  4  1  0  0  0  0
  4  5  1  0  0  0  0
  4  6  2  0  0  0  0
  6  7  1  0  0  0  0
  6  8  1  0  0  0  0
  8  9  1  0  0  0  0
  8 10  1  0  0  0  0
  8 11  1  0  0  0  0
 11 12  1  0  0  0  0
 11 13  1  0  0  0  0
 11 14  1  0  0  0  0
 14 15  1  0  0  0  0
 14 16  1  0  0  0  0
 14 17  1  0  0  0  0
M  END
> <VConfSearch Rank>
610

> <Conf_Id>
1

> <Delta U+W>
0.030

> <U+W>
-53.378

> <U>
9.048

> <W>
-62.426

> <W(PB)>
-64.506

> <W(SA)>
2.080

> <Valence>
2.652

> <Coulomb>
5.578

> <VdW>
0.818

> <VdW6>
-4.535

> <VdW12>
5.352

> <Bond>
0.063

> <Angle>
2.579

> <Pdih>
0.010

> <Idih>
0.000

> <Tether>
0.000

$$$$
VeraChem MOL file


 17 16  0  0  0  0  0  0  0  0999 V2000     
   19.0051   21.7438   23.2433 C   0  0  0  0  0  0  0  0  0  0  0  0
   19.0352   22.4532   22.2552 O   0  5  0  0  0  0  0  0  0  0  0  0
   18.4001   22.0451   24.2537 O   0  0  0  0  0  0  0  0  0  0  0  0
   19.7358   20.4476   23.2404 C   0  0  0  0  0  0  0  0  0  0  0  0
   19.6687   19.8628   24.1549 H   0  0  0  0  0  0  0  0  0  0  0  0
   20.4476   19.9860   22.1872 C   0  0  0  0  0  0  0  0  0  0  0  0
   20.5187   20.5622   21.2649 H   0  0  0  0  0  0  0  0  0  0  0  0
   21.1856   18.6638   22.1902 C   0  0  0  0  0  0  0  0  0  0  0  0
   21.6735   18.5165   23.1633 H   0  0  0  0  0  0  0  0  0  0  0  0
   21.9911   18.6846   21.4439 H   0  0  0  0  0  0  0  0  0  0  0  0
   20.2499   17.4680   21.9069 C   0  0  0  0  0  0  0  0  0  0  0  0
   20.8154   16.5335   22.0257 H   0  0  0  0  0  0  0  0  0  0  0  0
   19.4435   17.4438   22.6529 H   0  0  0  0  0  0  0  0  0  0  0  0
   19.6442   17.5142   20.4879 C   0  0  0  0  0  0  0  0  0  0  0  0
   20.4329   17.5263   19.7244 H   0  0  0  0  0  0  0  0  0  0  0  0
   19.0128   16.6343   20.3090 H   0  0  0  0  0  0  0  0  0  0  0  0
   19.0216   18.4082   20.3519 H   0  0  0  0  0  0  0  0  0  0  0  0
  1  2  1  0  0  0  0
  1  3  2  0  0  0  0
  1  4  1  0  0  0  0
  4  5  1  0  0  0  0
  4  6  2  0  0  0  0
  6  7  1  0  0  0  0
  6  8  1  0  0  0  0
  8  9  1  0  0  0  0
  8 10  1  0  0  0  0
  8 11  1  0  0  0  0
 11 12  1  0  0  0  0
 11 13  1  0  0  0  0
 11 14  1  0  0  0  0
 14 15  1  0  0  0  0
 14 16  1  0  0  0  0
 14 17  1  0  0  0  0
M  END
> <VConfSearch Rank>
611

> <Conf_Id>
3

> <Delta U+W>
0.531

> <U+W>
-52.878

> <U>
10.067

> <W>
-62.945

> <W(PB)>
-64.982

> <W(SA)>
2.037

> <Valence>
2.779

> <Coulomb>
6.474

> <VdW>
0.815

> <VdW6>
-5.088

> <VdW12>
5.902

> <Bond>
0.078

> <Angle>
2.651

> <Pdih>
0.050

> <Idih>
0.000

> <Tether>
0.000

$$$$
VeraChem MOL file


 17 16  0  0  0  0  0  0  0  0999 V2000     
   19.1883   16.9334   24.0270 C   0  0  0  0  0  0  0  0  0  0  0  0
   18.4912   17.0022   25.0206 O   0  5  0  0  0  0  0  0  0  0  0  0
   19.9875   16.0348   23.8420 O   0  0  0  0  0  0  0  0  0  0  0  0
   19.0369   18.0049   23.0057 C   0  0  0  0  0  0  0  0  0  0  0  0
   18.3056   18.7769   23.2337 H   0  0  0  0  0  0  0  0  0  0  0  0
   19.7477   18.0560   21.8560 C   0  0  0  0  0  0  0  0  0  0  0  0
   20.4850   17.2886   21.6216 H   0  0  0  0  0  0  0  0  0  0  0  0
   19.5933   19.1497   20.8195 C   0  0  0  0  0  0  0  0  0  0  0  0
   18.6504   19.6932   20.9688 H   0  0  0  0  0  0  0  0  0  0  0  0
   19.5276   18.6925   19.8232 H   0  0  0  0  0  0  0  0  0  0  0  0
   20.7743   20.1447   20.8370 C   0  0  0  0  0  0  0  0  0  0  0  0
   21.7181   19.6014   20.6904 H   0  0  0  0  0  0  0  0  0  0  0  0
   20.6742   20.8347   19.9878 H   0  0  0  0  0  0  0  0  0  0  0  0
   20.8424   20.9627   22.1443 C   0  0  0  0  0  0  0  0  0  0  0  0
   21.0072   20.3103   23.0117 H   0  0  0  0  0  0  0  0  0  0  0  0
   21.6680   21.6850   22.1052 H   0  0  0  0  0  0  0  0  0  0  0  0
   19.9111   21.5205   22.3073 H   0  0  0  0  0  0  0  0  0  0  0  0
  1  2  1  0  0  0  0
  1  3  2  0  0  0  0
  1  4  1  0  0  0  0
  4  5  1  0  0  0  0
  4  6  2  0  0  0  0
  6  7  1  0  0  0  0
  6  8  1  0  0  0  0
  8  9  1  0  0  0  0
  8 10  1  0  0  0  0
  8 11  1  0  0  0  0
 11 12  1  0  0  0  0
 11 13  1  0  0  0  0
 11 14  1  0  0  0  0
 14 15  1  0  0  0  0
 14 16  1  0  0  0  0
 14 17  1  0  0  0  0
M  END
> <VConfSearch Rank>
612

> <Conf_Id>
45

> <Delta U+W>
0.562

> <U+W>
-52.846

> <U>
10.243

> <W>
-63.089

> <W(PB)>
-65.116

> <W(SA)>
2.026

> <Valence>
2.822

> <Coulomb>
6.637

> <VdW>
0.785

> <VdW6>
-5.216

> <VdW12>
6.001

> <Bond>
0.080

> <Angle>
2.678

> <Pdih>
0.064

> <Idih>
0.000

> <Tether>
0.000

$$$$
VeraChem MOL file


 17 16  0  0  0  0  0  0  0  0999 V2000     
   20.0608   18.1448   25.1426 C   0  0  0  0  0  0  0  0  0  0  0  0
   20.4566   17.1009   25.6235 O   0  5  0  0  0  0  0  0  0  0  0  0
   19.3952   18.9494   25.7670 O   0  0  0  0  0  0  0  0  0  0  0  0
   20.4202   18.4295   23.7270 C   0  0  0  0  0  0  0  0  0  0  0  0
   21.0163   17.6697   23.2266 H   0  0  0  0  0  0  0  0  0  0  0  0
   20.0477   19.5486   23.0652 C   0  0  0  0  0  0  0  0  0  0  0  0
   19.4484   20.3151   23.5561 H   0  0  0  0  0  0  0  0  0  0  0  0
   20.4156   19.8294   21.6247 C   0  0  0  0  0  0  0  0  0  0  0  0
   21.4405   19.4878   21.4253 H   0  0  0  0  0  0  0  0  0  0  0  0
   20.4075   20.9134   21.4476 H   0  0  0  0  0  0  0  0  0  0  0  0
   19.4384   19.1401   20.6505 C   0  0  0  0  0  0  0  0  0  0  0  0
   19.4484   18.0549   20.8235 H   0  0  0  0  0  0  0  0  0  0  0  0
   18.4143   19.4849   20.8505 H   0  0  0  0  0  0  0  0  0  0  0  0
   19.8010   19.4292   19.1800 C   0  0  0  0  0  0  0  0  0  0  0  0
   19.7674   20.5066   18.9715 H   0  0  0  0  0  0  0  0  0  0  0  0
   20.8101   19.0657   18.9454 H   0  0  0  0  0  0  0  0  0  0  0  0
   19.0954   18.9309   18.5025 H   0  0  0  0  0  0  0  0  0  0  0  0
  1  2  1  0  0  0  0
  1  3  2  0  0  0  0
  1  4  1  0  0  0  0
  4  5  1  0  0  0  0
  4  6  2  0  0  0  0
  6  7  1  0  0  0  0
  6  8  1  0  0  0  0
  8  9  1  0  0  0  0
  8 10  1  0  0  0  0
  8 11  1  0  0  0  0
 11 12  1  0  0  0  0
 11 13  1  0  0  0  0
 11 14  1  0  0  0  0
 14 15  1  0  0  0  0
 14 16  1  0  0  0  0
 14 17  1  0  0  0  0
M  END
> <VConfSearch Rank>
613

> <Conf_Id>
36

> <Delta U+W>
0.000

> <U+W>
-53.409

> <U>
9.048

> <W>
-62.457

> <W(PB)>
-64.540

> <W(SA)>
2.084

> <Valence>
2.652

> <Coulomb>
5.578

> <VdW>
0.818

> <VdW6>
-4.534

> <VdW12>
5.352

> <Bond>
0.063

> <Angle>
2.579

> <Pdih>
0.010

> <Idih>
0.000

> <Tether>
0.000

$$$$
VeraChem MOL file


 17 16  0  0  0  0  0  0  0  0999 V2000     
   20.3827   21.7105   19.8179 C   0  0  0  0  0  0  0  0  0  0  0  0
   20.4788   21.2521   18.6949 O   0  5  0  0  0  0  0  0  0  0  0  0
   20.6066   22.8771   20.0760 O   0  0  0  0  0  0  0  0  0  0  0  0
   19.9735   20.8241   20.9409 C   0  0  0  0  0  0  0  0  0  0  0  0
   19.9068   21.2965   21.9183 H   0  0  0  0  0  0  0  0  0  0  0  0
   19.6949   19.5083   20.7996 C   0  0  0  0  0  0  0  0  0  0  0  0
   19.7607   19.0243   19.8253 H   0  0  0  0  0  0  0  0  0  0  0  0
   19.2812   18.6134   21.9473 C   0  0  0  0  0  0  0  0  0  0  0  0
   18.7016   17.7641   21.5610 H   0  0  0  0  0  0  0  0  0  0  0  0
   18.6165   19.1608   22.6295 H   0  0  0  0  0  0  0  0  0  0  0  0
   20.5077   18.0911   22.7231 C   0  0  0  0  0  0  0  0  0  0  0  0
   21.1698   17.5422   22.0391 H   0  0  0  0  0  0  0  0  0  0  0  0
   21.0865   18.9396   23.1137 H   0  0  0  0  0  0  0  0  0  0  0  0
   20.0948   17.1706   23.8891 C   0  0  0  0  0  0  0  0  0  0  0  0
   19.5410   16.2963   23.5225 H   0  0  0  0  0  0  0  0  0  0  0  0
   20.9798   16.8092   24.4287 H   0  0  0  0  0  0  0  0  0  0  0  0
   19.4566   17.7055   24.6048 H   0  0  0  0  0  0  0  0  0  0  0  0
  1  2  1  0  0  0  0
  1  3  2  0  0  0  0
  1  4  1  0  0  0  0
  4  5  1  0  0  0  0
  4  6  2  0  0  0  0
  6  7  1  0  0  0  0
  6  8  1  0  0  0  0
  8  9  1  0  0  0  0
  8 10  1  0  0  0  0
  8 11  1  0  0  0  0
 11 12  1  0  0  0  0
 11 13  1  0  0  0  0
 11 14  1  0  0  0  0
 14 15  1  0  0  0  0
 14 16  1  0  0  0  0
 14 17  1  0  0  0  0
M  END
> <VConfSearch Rank>
614

> <Conf_Id>
1

> <Delta U+W>
0.030

> <U+W>
-53.378

> <U>
9.048

> <W>
-62.426

> <W(PB)>
-64.506

> <W(SA)>
2.080

> <Valence>
2.652

> <Coulomb>
5.578

> <VdW>
0.818

> <VdW6>
-4.535

> <VdW12>
5.352

> <Bond>
0.063

> <Angle>
2.579

> <Pdih>
0.010

> <Idih>
0.000

> <Tether>
0.000

$$$$
VeraChem MOL file


 17 16  0  0  0  0  0  0  0  0999 V2000     
   17.3623   17.5252   21.9367 C   0  0  0  0  0  0  0  0  0  0  0  0
   16.5680   18.4291   22.1169 O   0  5  0  0  0  0  0  0  0  0  0  0
   17.0358   16.4359   21.5069 O   0  0  0  0  0  0  0  0  0  0  0  0
   18.8010   17.7367   22.2519 C   0  0  0  0  0  0  0  0  0  0  0  0
   19.4568   16.8886   22.0688 H   0  0  0  0  0  0  0  0  0  0  0  0
   19.3045   18.8956   22.7339 C   0  0  0  0  0  0  0  0  0  0  0  0
   18.6571   19.7527   22.9178 H   0  0  0  0  0  0  0  0  0  0  0  0
   20.7708   19.1048   23.0487 C   0  0  0  0  0  0  0  0  0  0  0  0
   21.1770   18.2034   23.5273 H   0  0  0  0  0  0  0  0  0  0  0  0
   20.8831   19.9166   23.7799 H   0  0  0  0  0  0  0  0  0  0  0  0
   21.6025   19.4269   21.7877 C   0  0  0  0  0  0  0  0  0  0  0  0
   22.6666   19.4634   22.0589 H   0  0  0  0  0  0  0  0  0  0  0  0
   21.4931   18.6157   21.0546 H   0  0  0  0  0  0  0  0  0  0  0  0
   21.2003   20.7696   21.1411 C   0  0  0  0  0  0  0  0  0  0  0  0
   21.3139   21.5978   21.8527 H   0  0  0  0  0  0  0  0  0  0  0  0
   21.8324   20.9828   20.2694 H   0  0  0  0  0  0  0  0  0  0  0  0
   20.1562   20.7492   20.8025 H   0  0  0  0  0  0  0  0  0  0  0  0
  1  2  1  0  0  0  0
  1  3  2  0  0  0  0
  1  4  1  0  0  0  0
  4  5  1  0  0  0  0
  4  6  2  0  0  0  0
  6  7  1  0  0  0  0
  6  8  1  0  0  0  0
  8  9  1  0  0  0  0
  8 10  1  0  0  0  0
  8 11  1  0  0  0  0
 11 12  1  0  0  0  0
 11 13  1  0  0  0  0
 11 14  1  0  0  0  0
 14 15  1  0  0  0  0
 14 16  1  0  0  0  0
 14 17  1  0  0  0  0
M  END
> <VConfSearch Rank>
615

> <Conf_Id>
3

> <Delta U+W>
0.531

> <U+W>
-52.878

> <U>
10.067

> <W>
-62.945

> <W(PB)>
-64.982

> <W(SA)>
2.037

> <Valence>
2.779

> <Coulomb>
6.474

> <VdW>
0.815

> <VdW6>
-5.088

> <VdW12>
5.902

> <Bond>
0.078

> <Angle>
2.651

> <Pdih>
0.050

> <Idih>
0.000

> <Tether>
0.000

$$$$
VeraChem MOL file


 17 16  0  0  0  0  0  0  0  0999 V2000     
   22.9743   19.1116   21.7100 C   0  0  0  0  0  0  0  0  0  0  0  0
   23.7376   18.1808   21.5407 O   0  5  0  0  0  0  0  0  0  0  0  0
   23.3385   20.1984   22.1182 O   0  0  0  0  0  0  0  0  0  0  0  0
   21.5374   18.8884   21.3942 C   0  0  0  0  0  0  0  0  0  0  0  0
   21.2802   17.8950   21.0339 H   0  0  0  0  0  0  0  0  0  0  0  0
   20.5790   19.8321   21.5371 C   0  0  0  0  0  0  0  0  0  0  0  0
   20.8275   20.8288   21.9010 H   0  0  0  0  0  0  0  0  0  0  0  0
   19.1166   19.6010   21.2174 C   0  0  0  0  0  0  0  0  0  0  0  0
   18.9953   18.7110   20.5850 H   0  0  0  0  0  0  0  0  0  0  0  0
   18.7405   20.4478   20.6279 H   0  0  0  0  0  0  0  0  0  0  0  0
   18.2544   19.4546   22.4903 C   0  0  0  0  0  0  0  0  0  0  0  0
   18.3772   20.3433   23.1247 H   0  0  0  0  0  0  0  0  0  0  0  0
   17.1945   19.4182   22.2031 H   0  0  0  0  0  0  0  0  0  0  0  0
   18.6000   18.1861   23.2992 C   0  0  0  0  0  0  0  0  0  0  0  0
   19.6365   18.2163   23.6595 H   0  0  0  0  0  0  0  0  0  0  0  0
   17.9426   18.0946   24.1734 H   0  0  0  0  0  0  0  0  0  0  0  0
   18.4767   17.2839   22.6861 H   0  0  0  0  0  0  0  0  0  0  0  0
  1  2  1  0  0  0  0
  1  3  2  0  0  0  0
  1  4  1  0  0  0  0
  4  5  1  0  0  0  0
  4  6  2  0  0  0  0
  6  7  1  0  0  0  0
  6  8  1  0  0  0  0
  8  9  1  0  0  0  0
  8 10  1  0  0  0  0
  8 11  1  0  0  0  0
 11 12  1  0  0  0  0
 11 13  1  0  0  0  0
 11 14  1  0  0  0  0
 14 15  1  0  0  0  0
 14 16  1  0  0  0  0
 14 17  1  0  0  0  0
M  END
> <VConfSearch Rank>
616

> <Conf_Id>
45

> <Delta U+W>
0.562

> <U+W>
-52.846

> <U>
10.243

> <W>
-63.089

> <W(PB)>
-65.116

> <W(SA)>
2.026

> <Valence>
2.822

> <Coulomb>
6.637

> <VdW>
0.785

> <VdW6>
-5.216

> <VdW12>
6.001

> <Bond>
0.080

> <Angle>
2.678

> <Pdih>
0.064

> <Idih>
0.000

> <Tether>
0.000

$$$$
VeraChem MOL file


 17 16  0  0  0  0  0  0  0  0999 V2000     
   18.5929   18.7779   24.9634 C   0  0  0  0  0  0  0  0  0  0  0  0
   17.4180   18.7800   25.2752 O   0  5  0  0  0  0  0  0  0  0  0  0
   19.4924   18.8750   25.7769 O   0  0  0  0  0  0  0  0  0  0  0  0
   18.9204   18.6482   23.5177 C   0  0  0  0  0  0  0  0  0  0  0  0
   18.0705   18.5654   22.8441 H   0  0  0  0  0  0  0  0  0  0  0  0
   20.1813   18.6325   23.0289 C   0  0  0  0  0  0  0  0  0  0  0  0
   21.0401   18.7172   23.6946 H   0  0  0  0  0  0  0  0  0  0  0  0
   20.5057   18.5025   21.5568 C   0  0  0  0  0  0  0  0  0  0  0  0
   19.8108   17.7979   21.0799 H   0  0  0  0  0  0  0  0  0  0  0  0
   21.5117   18.0779   21.4379 H   0  0  0  0  0  0  0  0  0  0  0  0
   20.4341   19.8679   20.8429 C   0  0  0  0  0  0  0  0  0  0  0  0
   19.4269   20.2922   20.9573 H   0  0  0  0  0  0  0  0  0  0  0  0
   21.1315   20.5702   21.3204 H   0  0  0  0  0  0  0  0  0  0  0  0
   20.7728   19.7455   19.3436 C   0  0  0  0  0  0  0  0  0  0  0  0
   21.7881   19.3529   19.2009 H   0  0  0  0  0  0  0  0  0  0  0  0
   20.0700   19.0718   18.8359 H   0  0  0  0  0  0  0  0  0  0  0  0
   20.7166   20.7260   18.8531 H   0  0  0  0  0  0  0  0  0  0  0  0
  1  2  1  0  0  0  0
  1  3  2  0  0  0  0
  1  4  1  0  0  0  0
  4  5  1  0  0  0  0
  4  6  2  0  0  0  0
  6  7  1  0  0  0  0
  6  8  1  0  0  0  0
  8  9  1  0  0  0  0
  8 10  1  0  0  0  0
  8 11  1  0  0  0  0
 11 12  1  0  0  0  0
 11 13  1  0  0  0  0
 11 14  1  0  0  0  0
 14 15  1  0  0  0  0
 14 16  1  0  0  0  0
 14 17  1  0  0  0  0
M  END
> <VConfSearch Rank>
617

> <Conf_Id>
36

> <Delta U+W>
0.000

> <U+W>
-53.409

> <U>
9.048

> <W>
-62.457

> <W(PB)>
-64.540

> <W(SA)>
2.084

> <Valence>
2.652

> <Coulomb>
5.578

> <VdW>
0.818

> <VdW6>
-4.534

> <VdW12>
5.352

> <Bond>
0.063

> <Angle>
2.579

> <Pdih>
0.010

> <Idih>
0.000

> <Tether>
0.000

$$$$
VeraChem MOL file


 17 16  0  0  0  0  0  0  0  0999 V2000     
   17.4007   16.9718   22.1299 C   0  0  0  0  0  0  0  0  0  0  0  0
   16.4021   17.6546   22.2606 O   0  5  0  0  0  0  0  0  0  0  0  0
   17.3995   15.7654   22.2792 O   0  0  0  0  0  0  0  0  0  0  0  0
   18.6915   17.6188   21.7705 C   0  0  0  0  0  0  0  0  0  0  0  0
   19.5447   16.9519   21.6692 H   0  0  0  0  0  0  0  0  0  0  0  0
   18.8394   18.9489   21.5754 C   0  0  0  0  0  0  0  0  0  0  0  0
   17.9918   19.6264   21.6765 H   0  0  0  0  0  0  0  0  0  0  0  0
   20.1563   19.5991   21.2119 C   0  0  0  0  0  0  0  0  0  0  0  0
   19.9669   20.5460   20.6885 H   0  0  0  0  0  0  0  0  0  0  0  0
   20.7099   18.9599   20.5107 H   0  0  0  0  0  0  0  0  0  0  0  0
   21.0165   19.8647   22.4643 C   0  0  0  0  0  0  0  0  0  0  0  0
   20.4615   20.5061   23.1631 H   0  0  0  0  0  0  0  0  0  0  0  0
   21.2104   18.9177   22.9869 H   0  0  0  0  0  0  0  0  0  0  0  0
   22.3568   20.5360   22.1031 C   0  0  0  0  0  0  0  0  0  0  0  0
   22.1917   21.5014   21.6070 H   0  0  0  0  0  0  0  0  0  0  0  0
   22.9544   20.7169   23.0060 H   0  0  0  0  0  0  0  0  0  0  0  0
   22.9455   19.9001   21.4289 H   0  0  0  0  0  0  0  0  0  0  0  0
  1  2  1  0  0  0  0
  1  3  2  0  0  0  0
  1  4  1  0  0  0  0
  4  5  1  0  0  0  0
  4  6  2  0  0  0  0
  6  7  1  0  0  0  0
  6  8  1  0  0  0  0
  8  9  1  0  0  0  0
  8 10  1  0  0  0  0
  8 11  1  0  0  0  0
 11 12  1  0  0  0  0
 11 13  1  0  0  0  0
 11 14  1  0  0  0  0
 14 15  1  0  0  0  0
 14 16  1  0  0  0  0
 14 17  1  0  0  0  0
M  END
> <VConfSearch Rank>
618

> <Conf_Id>
1

> <Delta U+W>
0.030

> <U+W>
-53.378

> <U>
9.048

> <W>
-62.426

> <W(PB)>
-64.506

> <W(SA)>
2.080

> <Valence>
2.652

> <Coulomb>
5.578

> <VdW>
0.818

> <VdW6>
-4.535

> <VdW12>
5.352

> <Bond>
0.063

> <Angle>
2.579

> <Pdih>
0.010

> <Idih>
0.000

> <Tether>
0.000

$$$$
VeraChem MOL file


 17 16  0  0  0  0  0  0  0  0999 V2000     
   20.3942   22.0860   21.4434 C   0  0  0  0  0  0  0  0  0  0  0  0
   21.2285   22.3756   22.2804 O   0  5  0  0  0  0  0  0  0  0  0  0
   20.1390   22.7987   20.4921 O   0  0  0  0  0  0  0  0  0  0  0  0
   19.6377   20.8110   21.5695 C   0  0  0  0  0  0  0  0  0  0  0  0
   18.9067   20.6135   20.7888 H   0  0  0  0  0  0  0  0  0  0  0  0
   19.8187   19.9234   22.5737 C   0  0  0  0  0  0  0  0  0  0  0  0
   20.5508   20.1097   23.3592 H   0  0  0  0  0  0  0  0  0  0  0  0
   19.0476   18.6257   22.6934 C   0  0  0  0  0  0  0  0  0  0  0  0
   17.9958   18.7964   22.4269 H   0  0  0  0  0  0  0  0  0  0  0  0
   19.0476   18.2870   23.7382 H   0  0  0  0  0  0  0  0  0  0  0  0
   19.6248   17.5138   21.7901 C   0  0  0  0  0  0  0  0  0  0  0  0
   18.9671   16.6349   21.8376 H   0  0  0  0  0  0  0  0  0  0  0  0
   19.6249   17.8494   20.7437 H   0  0  0  0  0  0  0  0  0  0  0  0
   21.0529   17.0981   22.2029 C   0  0  0  0  0  0  0  0  0  0  0  0
   21.0745   16.7467   23.2427 H   0  0  0  0  0  0  0  0  0  0  0  0
   21.4183   16.2848   21.5626 H   0  0  0  0  0  0  0  0  0  0  0  0
   21.7525   17.9391   22.1105 H   0  0  0  0  0  0  0  0  0  0  0  0
  1  2  1  0  0  0  0
  1  3  2  0  0  0  0
  1  4  1  0  0  0  0
  4  5  1  0  0  0  0
  4  6  2  0  0  0  0
  6  7  1  0  0  0  0
  6  8  1  0  0  0  0
  8  9  1  0  0  0  0
  8 10  1  0  0  0  0
  8 11  1  0  0  0  0
 11 12  1  0  0  0  0
 11 13  1  0  0  0  0
 11 14  1  0  0  0  0
 14 15  1  0  0  0  0
 14 16  1  0  0  0  0
 14 17  1  0  0  0  0
M  END
> <VConfSearch Rank>
619

> <Conf_Id>
3

> <Delta U+W>
0.531

> <U+W>
-52.878

> <U>
10.067

> <W>
-62.945

> <W(PB)>
-64.982

> <W(SA)>
2.037

> <Valence>
2.779

> <Coulomb>
6.474

> <VdW>
0.815

> <VdW6>
-5.088

> <VdW12>
5.902

> <Bond>
0.078

> <Angle>
2.651

> <Pdih>
0.050

> <Idih>
0.000

> <Tether>
0.000

$$$$
VeraChem MOL file


 17 16  0  0  0  0  0  0  0  0999 V2000     
   22.0452   19.7101   19.9629 C   0  0  0  0  0  0  0  0  0  0  0  0
   23.2518   19.5657   19.9953 O   0  5  0  0  0  0  0  0  0  0  0  0
   21.4914   20.4670   19.1877 O   0  0  0  0  0  0  0  0  0  0  0  0
   21.2316   18.9133   20.9205 C   0  0  0  0  0  0  0  0  0  0  0  0
   21.7893   18.2571   21.5846 H   0  0  0  0  0  0  0  0  0  0  0  0
   19.8826   18.9753   20.9968 C   0  0  0  0  0  0  0  0  0  0  0  0
   19.3162   19.6328   20.3377 H   0  0  0  0  0  0  0  0  0  0  0  0
   19.0572   18.1648   21.9748 C   0  0  0  0  0  0  0  0  0  0  0  0
   19.6448   17.3276   22.3753 H   0  0  0  0  0  0  0  0  0  0  0  0
   18.2092   17.7150   21.4414 H   0  0  0  0  0  0  0  0  0  0  0  0
   18.5176   19.0240   23.1392 C   0  0  0  0  0  0  0  0  0  0  0  0
   17.9319   19.8633   22.7393 H   0  0  0  0  0  0  0  0  0  0  0  0
   17.8268   18.4180   23.7415 H   0  0  0  0  0  0  0  0  0  0  0  0
   19.6412   19.5613   24.0512 C   0  0  0  0  0  0  0  0  0  0  0  0
   20.3174   20.2253   23.4973 H   0  0  0  0  0  0  0  0  0  0  0  0
   19.2191   20.1330   24.8877 H   0  0  0  0  0  0  0  0  0  0  0  0
   20.2354   18.7380   24.4685 H   0  0  0  0  0  0  0  0  0  0  0  0
  1  2  1  0  0  0  0
  1  3  2  0  0  0  0
  1  4  1  0  0  0  0
  4  5  1  0  0  0  0
  4  6  2  0  0  0  0
  6  7  1  0  0  0  0
  6  8  1  0  0  0  0
  8  9  1  0  0  0  0
  8 10  1  0  0  0  0
  8 11  1  0  0  0  0
 11 12  1  0  0  0  0
 11 13  1  0  0  0  0
 11 14  1  0  0  0  0
 14 15  1  0  0  0  0
 14 16  1  0  0  0  0
 14 17  1  0  0  0  0
M  END
> <VConfSearch Rank>
620

> <Conf_Id>
45

> <Delta U+W>
0.562

> <U+W>
-52.846

> <U>
10.243

> <W>
-63.089

> <W(PB)>
-65.116

> <W(SA)>
2.026

> <Valence>
2.822

> <Coulomb>
6.637

> <VdW>
0.785

> <VdW6>
-5.216

> <VdW12>
6.001

> <Bond>
0.080

> <Angle>
2.678

> <Pdih>
0.064

> <Idih>
0.000

> <Tether>
0.000

$$$$
VeraChem MOL file


 17 16  0  0  0  0  0  0  0  0999 V2000     
   17.1869   19.1750   20.0428 C   0  0  0  0  0  0  0  0  0  0  0  0
   16.1968   18.4738   20.1191 O   0  5  0  0  0  0  0  0  0  0  0  0
   17.4134   19.8966   19.0897 O   0  0  0  0  0  0  0  0  0  0  0  0
   18.1485   19.1327   21.1775 C   0  0  0  0  0  0  0  0  0  0  0  0
   17.8865   18.4676   21.9972 H   0  0  0  0  0  0  0  0  0  0  0  0
   19.2894   19.8574   21.2261 C   0  0  0  0  0  0  0  0  0  0  0  0
   19.5628   20.5251   20.4093 H   0  0  0  0  0  0  0  0  0  0  0  0
   20.2632   19.8070   22.3830 C   0  0  0  0  0  0  0  0  0  0  0  0
   19.7151   19.7339   23.3323 H   0  0  0  0  0  0  0  0  0  0  0  0
   20.8349   20.7439   22.4236 H   0  0  0  0  0  0  0  0  0  0  0  0
   21.2335   18.6155   22.2492 C   0  0  0  0  0  0  0  0  0  0  0  0
   20.6632   17.6769   22.2127 H   0  0  0  0  0  0  0  0  0  0  0  0
   21.7820   18.6919   21.3000 H   0  0  0  0  0  0  0  0  0  0  0  0
   22.2356   18.5625   23.4199 C   0  0  0  0  0  0  0  0  0  0  0  0
   22.8417   19.4771   23.4601 H   0  0  0  0  0  0  0  0  0  0  0  0
   21.7132   18.4549   24.3796 H   0  0  0  0  0  0  0  0  0  0  0  0
   22.9169   17.7092   23.3075 H   0  0  0  0  0  0  0  0  0  0  0  0
  1  2  1  0  0  0  0
  1  3  2  0  0  0  0
  1  4  1  0  0  0  0
  4  5  1  0  0  0  0
  4  6  2  0  0  0  0
  6  7  1  0  0  0  0
  6  8  1  0  0  0  0
  8  9  1  0  0  0  0
  8 10  1  0  0  0  0
  8 11  1  0  0  0  0
 11 12  1  0  0  0  0
 11 13  1  0  0  0  0
 11 14  1  0  0  0  0
 14 15  1  0  0  0  0
 14 16  1  0  0  0  0
 14 17  1  0  0  0  0
M  END
> <VConfSearch Rank>
621

> <Conf_Id>
36

> <Delta U+W>
0.000

> <U+W>
-53.409

> <U>
9.048

> <W>
-62.457

> <W(PB)>
-64.540

> <W(SA)>
2.084

> <Valence>
2.652

> <Coulomb>
5.578

> <VdW>
0.818

> <VdW6>
-4.534

> <VdW12>
5.352

> <Bond>
0.063

> <Angle>
2.579

> <Pdih>
0.010

> <Idih>
0.000

> <Tether>
0.000

$$$$
VeraChem MOL file


 17 16  0  0  0  0  0  0  0  0999 V2000     
   18.3326   17.8183   24.5451 C   0  0  0  0  0  0  0  0  0  0  0  0
   18.2720   18.6973   25.3842 O   0  5  0  0  0  0  0  0  0  0  0  0
   18.0187   16.6661   24.7724 O   0  0  0  0  0  0  0  0  0  0  0  0
   18.8073   18.1437   23.1729 C   0  0  0  0  0  0  0  0  0  0  0  0
   18.8373   17.3129   22.4716 H   0  0  0  0  0  0  0  0  0  0  0  0
   19.1892   19.3805   22.7810 C   0  0  0  0  0  0  0  0  0  0  0  0
   19.1652   20.2196   23.4760 H   0  0  0  0  0  0  0  0  0  0  0  0
   19.6725   19.7026   21.3839 C   0  0  0  0  0  0  0  0  0  0  0  0
   19.5011   20.7665   21.1715 H   0  0  0  0  0  0  0  0  0  0  0  0
   19.0878   19.1382   20.6447 H   0  0  0  0  0  0  0  0  0  0  0  0
   21.1715   19.3784   21.2191 C   0  0  0  0  0  0  0  0  0  0  0  0
   21.7544   19.9457   21.9580 H   0  0  0  0  0  0  0  0  0  0  0  0
   21.3441   18.3133   21.4273 H   0  0  0  0  0  0  0  0  0  0  0  0
   21.6741   19.7127   19.8003 C   0  0  0  0  0  0  0  0  0  0  0  0
   21.5422   20.7797   19.5778 H   0  0  0  0  0  0  0  0  0  0  0  0
   22.7415   19.4756   19.7023 H   0  0  0  0  0  0  0  0  0  0  0  0
   21.1278   19.1345   19.0436 H   0  0  0  0  0  0  0  0  0  0  0  0
  1  2  1  0  0  0  0
  1  3  2  0  0  0  0
  1  4  1  0  0  0  0
  4  5  1  0  0  0  0
  4  6  2  0  0  0  0
  6  7  1  0  0  0  0
  6  8  1  0  0  0  0
  8  9  1  0  0  0  0
  8 10  1  0  0  0  0
  8 11  1  0  0  0  0
 11 12  1  0  0  0  0
 11 13  1  0  0  0  0
 11 14  1  0  0  0  0
 14 15  1  0  0  0  0
 14 16  1  0  0  0  0
 14 17  1  0  0  0  0
M  END
> <VConfSearch Rank>
622

> <Conf_Id>
1

> <Delta U+W>
0.030

> <U+W>
-53.378

> <U>
9.048

> <W>
-62.426

> <W(PB)>
-64.506

> <W(SA)>
2.080

> <Valence>
2.652

> <Coulomb>
5.578

> <VdW>
0.818

> <VdW6>
-4.535

> <VdW12>
5.352

> <Bond>
0.063

> <Angle>
2.579

> <Pdih>
0.010

> <Idih>
0.000

> <Tether>
0.000

$$$$
VeraChem MOL file


 17 16  0  0  0  0  0  0  0  0999 V2000     
   20.7966   18.3151   19.1703 C   0  0  0  0  0  0  0  0  0  0  0  0
   20.2282   19.1918   18.5468 O   0  5  0  0  0  0  0  0  0  0  0  0
   21.6639   17.6157   18.6840 O   0  0  0  0  0  0  0  0  0  0  0  0
   20.4293   18.0666   20.5907 C   0  0  0  0  0  0  0  0  0  0  0  0
   20.9745   17.2686   21.0894 H   0  0  0  0  0  0  0  0  0  0  0  0
   19.4853   18.7678   21.2587 C   0  0  0  0  0  0  0  0  0  0  0  0
   18.9355   19.5716   20.7698 H   0  0  0  0  0  0  0  0  0  0  0  0
   19.1196   18.5118   22.7057 C   0  0  0  0  0  0  0  0  0  0  0  0
   19.0943   17.4298   22.8933 H   0  0  0  0  0  0  0  0  0  0  0  0
   18.1044   18.8807   22.9046 H   0  0  0  0  0  0  0  0  0  0  0  0
   20.1110   19.1729   23.6883 C   0  0  0  0  0  0  0  0  0  0  0  0
   19.8586   18.8675   24.7131 H   0  0  0  0  0  0  0  0  0  0  0  0
   21.1276   18.8048   23.4925 H   0  0  0  0  0  0  0  0  0  0  0  0
   20.0905   20.7140   23.6017 C   0  0  0  0  0  0  0  0  0  0  0  0
   19.0856   21.1055   23.8066 H   0  0  0  0  0  0  0  0  0  0  0  0
   20.7805   21.1509   24.3351 H   0  0  0  0  0  0  0  0  0  0  0  0
   20.3963   21.0588   22.6053 H   0  0  0  0  0  0  0  0  0  0  0  0
  1  2  1  0  0  0  0
  1  3  2  0  0  0  0
  1  4  1  0  0  0  0
  4  5  1  0  0  0  0
  4  6  2  0  0  0  0
  6  7  1  0  0  0  0
  6  8  1  0  0  0  0
  8  9  1  0  0  0  0
  8 10  1  0  0  0  0
  8 11  1  0  0  0  0
 11 12  1  0  0  0  0
 11 13  1  0  0  0  0
 11 14  1  0  0  0  0
 14 15  1  0  0  0  0
 14 16  1  0  0  0  0
 14 17  1  0  0  0  0
M  END
> <VConfSearch Rank>
623

> <Conf_Id>
3

> <Delta U+W>
0.531

> <U+W>
-52.878

> <U>
10.067

> <W>
-62.945

> <W(PB)>
-64.982

> <W(SA)>
2.037

> <Valence>
2.779

> <Coulomb>
6.474

> <VdW>
0.815

> <VdW6>
-5.088

> <VdW12>
5.902

> <Bond>
0.078

> <Angle>
2.651

> <Pdih>
0.050

> <Idih>
0.000

> <Tether>
0.000

$$$$
VeraChem MOL file


 17 16  0  0  0  0  0  0  0  0999 V2000     
   22.9934   19.1827   21.9655 C   0  0  0  0  0  0  0  0  0  0  0  0
   23.8064   19.0010   22.8509 O   0  5  0  0  0  0  0  0  0  0  0  0
   23.2558   19.7855   20.9417 O   0  0  0  0  0  0  0  0  0  0  0  0
   21.6257   18.6315   22.1645 C   0  0  0  0  0  0  0  0  0  0  0  0
   21.4590   18.1041   23.1009 H   0  0  0  0  0  0  0  0  0  0  0  0
   20.6232   18.7603   21.2657 C   0  0  0  0  0  0  0  0  0  0  0  0
   20.7807   19.2904   20.3266 H   0  0  0  0  0  0  0  0  0  0  0  0
   19.2310   18.2004   21.4723 C   0  0  0  0  0  0  0  0  0  0  0  0
   19.2339   17.4408   22.2658 H   0  0  0  0  0  0  0  0  0  0  0  0
   18.9128   17.6842   20.5568 H   0  0  0  0  0  0  0  0  0  0  0  0
   18.2011   19.3004   21.8108 C   0  0  0  0  0  0  0  0  0  0  0  0
   18.1995   20.0621   21.0188 H   0  0  0  0  0  0  0  0  0  0  0  0
   17.1954   18.8582   21.8229 H   0  0  0  0  0  0  0  0  0  0  0  0
   18.4730   19.9691   23.1752 C   0  0  0  0  0  0  0  0  0  0  0  0
   19.4454   20.4786   23.1800 H   0  0  0  0  0  0  0  0  0  0  0  0
   17.7008   20.7162   23.3997 H   0  0  0  0  0  0  0  0  0  0  0  0
   18.4716   19.2263   23.9836 H   0  0  0  0  0  0  0  0  0  0  0  0
  1  2  1  0  0  0  0
  1  3  2  0  0  0  0
  1  4  1  0  0  0  0
  4  5  1  0  0  0  0
  4  6  2  0  0  0  0
  6  7  1  0  0  0  0
  6  8  1  0  0  0  0
  8  9  1  0  0  0  0
  8 10  1  0  0  0  0
  8 11  1  0  0  0  0
 11 12  1  0  0  0  0
 11 13  1  0  0  0  0
 11 14  1  0  0  0  0
 14 15  1  0  0  0  0
 14 16  1  0  0  0  0
 14 17  1  0  0  0  0
M  END
> <VConfSearch Rank>
624

> <Conf_Id>
45

> <Delta U+W>
0.562

> <U+W>
-52.846

> <U>
10.243

> <W>
-63.089

> <W(PB)>
-65.116

> <W(SA)>
2.026

> <Valence>
2.822

> <Coulomb>
6.637

> <VdW>
0.785

> <VdW6>
-5.216

> <VdW12>
6.001

> <Bond>
0.080

> <Angle>
2.678

> <Pdih>
0.064

> <Idih>
0.000

> <Tether>
0.000

$$$$
VeraChem MOL file


 17 16  0  0  0  0  0  0  0  0999 V2000     
   19.1438   21.1488   24.4691 C   0  0  0  0  0  0  0  0  0  0  0  0
   19.1993   20.9438   25.6661 O   0  5  0  0  0  0  0  0  0  0  0  0
   18.5376   22.0871   23.9870 O   0  0  0  0  0  0  0  0  0  0  0  0
   19.8577   20.1976   23.5749 C   0  0  0  0  0  0  0  0  0  0  0  0
   20.3795   19.3816   24.0696 H   0  0  0  0  0  0  0  0  0  0  0  0
   19.8798   20.3026   22.2267 C   0  0  0  0  0  0  0  0  0  0  0  0
   19.3584   21.1148   21.7205 H   0  0  0  0  0  0  0  0  0  0  0  0
   20.6065   19.3296   21.3242 C   0  0  0  0  0  0  0  0  0  0  0  0
   21.5569   19.0279   21.7852 H   0  0  0  0  0  0  0  0  0  0  0  0
   20.8618   19.8258   20.3782 H   0  0  0  0  0  0  0  0  0  0  0  0
   19.7478   18.0810   21.0369 C   0  0  0  0  0  0  0  0  0  0  0  0
   19.4951   17.5810   21.9822 H   0  0  0  0  0  0  0  0  0  0  0  0
   18.7987   18.3852   20.5740 H   0  0  0  0  0  0  0  0  0  0  0  0
   20.4778   17.0884   20.1099 C   0  0  0  0  0  0  0  0  0  0  0  0
   20.7144   17.5539   19.1441 H   0  0  0  0  0  0  0  0  0  0  0  0
   21.4165   16.7445   20.5639 H   0  0  0  0  0  0  0  0  0  0  0  0
   19.8520   16.2074   19.9171 H   0  0  0  0  0  0  0  0  0  0  0  0
  1  2  1  0  0  0  0
  1  3  2  0  0  0  0
  1  4  1  0  0  0  0
  4  5  1  0  0  0  0
  4  6  2  0  0  0  0
  6  7  1  0  0  0  0
  6  8  1  0  0  0  0
  8  9  1  0  0  0  0
  8 10  1  0  0  0  0
  8 11  1  0  0  0  0
 11 12  1  0  0  0  0
 11 13  1  0  0  0  0
 11 14  1  0  0  0  0
 14 15  1  0  0  0  0
 14 16  1  0  0  0  0
 14 17  1  0  0  0  0
M  END
> <VConfSearch Rank>
625

> <Conf_Id>
36

> <Delta U+W>
0.000

> <U+W>
-53.409

> <U>
9.048

> <W>
-62.457

> <W(PB)>
-64.540

> <W(SA)>
2.084

> <Valence>
2.652

> <Coulomb>
5.578

> <VdW>
0.818

> <VdW6>
-4.534

> <VdW12>
5.352

> <Bond>
0.063

> <Angle>
2.579

> <Pdih>
0.010

> <Idih>
0.000

> <Tether>
0.000

$$$$
VeraChem MOL file


 17 16  0  0  0  0  0  0  0  0999 V2000     
   16.8251   18.5102   22.8451 C   0  0  0  0  0  0  0  0  0  0  0  0
   16.5838   17.3499   22.5696 O   0  5  0  0  0  0  0  0  0  0  0  0
   15.9657   19.3005   23.1836 O   0  0  0  0  0  0  0  0  0  0  0  0
   18.2260   19.0066   22.7732 C   0  0  0  0  0  0  0  0  0  0  0  0
   18.3726   20.0528   23.0320 H   0  0  0  0  0  0  0  0  0  0  0  0
   19.2797   18.2399   22.4113 C   0  0  0  0  0  0  0  0  0  0  0  0
   19.1437   17.1912   22.1478 H   0  0  0  0  0  0  0  0  0  0  0  0
   20.7012   18.7532   22.3389 C   0  0  0  0  0  0  0  0  0  0  0  0
   21.4012   17.9163   22.4652 H   0  0  0  0  0  0  0  0  0  0  0  0
   20.8922   19.4482   23.1679 H   0  0  0  0  0  0  0  0  0  0  0  0
   20.9764   19.4580   20.9949 C   0  0  0  0  0  0  0  0  0  0  0  0
   20.7867   18.7602   20.1674 H   0  0  0  0  0  0  0  0  0  0  0  0
   20.2794   20.2982   20.8688 H   0  0  0  0  0  0  0  0  0  0  0  0
   22.4262   19.9760   20.9095 C   0  0  0  0  0  0  0  0  0  0  0  0
   23.1444   19.1506   21.0009 H   0  0  0  0  0  0  0  0  0  0  0  0
   22.6029   20.4739   19.9472 H   0  0  0  0  0  0  0  0  0  0  0  0
   22.6323   20.7001   21.7086 H   0  0  0  0  0  0  0  0  0  0  0  0
  1  2  1  0  0  0  0
  1  3  2  0  0  0  0
  1  4  1  0  0  0  0
  4  5  1  0  0  0  0
  4  6  2  0  0  0  0
  6  7  1  0  0  0  0
  6  8  1  0  0  0  0
  8  9  1  0  0  0  0
  8 10  1  0  0  0  0
  8 11  1  0  0  0  0
 11 12  1  0  0  0  0
 11 13  1  0  0  0  0
 11 14  1  0  0  0  0
 14 15  1  0  0  0  0
 14 16  1  0  0  0  0
 14 17  1  0  0  0  0
M  END
> <VConfSearch Rank>
626

> <Conf_Id>
1

> <Delta U+W>
0.030

> <U+W>
-53.378

> <U>
9.048

> <W>
-62.426

> <W(PB)>
-64.506

> <W(SA)>
2.080

> <Valence>
2.652

> <Coulomb>
5.578

> <VdW>
0.818

> <VdW6>
-4.535

> <VdW12>
5.352

> <Bond>
0.063

> <Angle>
2.579

> <Pdih>
0.010

> <Idih>
0.000

> <Tether>
0.000

$$$$
VeraChem MOL file


 17 16  0  0  0  0  0  0  0  0999 V2000     
   23.0595   19.1713   22.5336 C   0  0  0  0  0  0  0  0  0  0  0  0
   23.2689   20.3631   22.4061 O   0  5  0  0  0  0  0  0  0  0  0  0
   23.8594   18.4117   23.0445 O   0  0  0  0  0  0  0  0  0  0  0  0
   21.7772   18.5939   22.0475 C   0  0  0  0  0  0  0  0  0  0  0  0
   21.6541   17.5229   22.1911 H   0  0  0  0  0  0  0  0  0  0  0  0
   20.7980   19.3197   21.4614 C   0  0  0  0  0  0  0  0  0  0  0  0
   20.9095   20.3939   21.3156 H   0  0  0  0  0  0  0  0  0  0  0  0
   19.4937   18.7256   20.9727 C   0  0  0  0  0  0  0  0  0  0  0  0
   19.6876   17.7579   20.4904 H   0  0  0  0  0  0  0  0  0  0  0  0
   19.0567   19.3711   20.1990 H   0  0  0  0  0  0  0  0  0  0  0  0
   18.4740   18.5264   22.1155 C   0  0  0  0  0  0  0  0  0  0  0  0
   17.5937   17.9987   21.7234 H   0  0  0  0  0  0  0  0  0  0  0  0
   18.9080   17.8798   22.8907 H   0  0  0  0  0  0  0  0  0  0  0  0
   18.0228   19.8617   22.7449 C   0  0  0  0  0  0  0  0  0  0  0  0
   17.5737   20.5199   21.9898 H   0  0  0  0  0  0  0  0  0  0  0  0
   17.2749   19.6855   23.5288 H   0  0  0  0  0  0  0  0  0  0  0  0
   18.8697   20.3908   23.2009 H   0  0  0  0  0  0  0  0  0  0  0  0
  1  2  1  0  0  0  0
  1  3  2  0  0  0  0
  1  4  1  0  0  0  0
  4  5  1  0  0  0  0
  4  6  2  0  0  0  0
  6  7  1  0  0  0  0
  6  8  1  0  0  0  0
  8  9  1  0  0  0  0
  8 10  1  0  0  0  0
  8 11  1  0  0  0  0
 11 12  1  0  0  0  0
 11 13  1  0  0  0  0
 11 14  1  0  0  0  0
 14 15  1  0  0  0  0
 14 16  1  0  0  0  0
 14 17  1  0  0  0  0
M  END
> <VConfSearch Rank>
627

> <Conf_Id>
3

> <Delta U+W>
0.531

> <U+W>
-52.878

> <U>
10.067

> <W>
-62.945

> <W(PB)>
-64.982

> <W(SA)>
2.037

> <Valence>
2.779

> <Coulomb>
6.474

> <VdW>
0.815

> <VdW6>
-5.088

> <VdW12>
5.902

> <Bond>
0.078

> <Angle>
2.651

> <Pdih>
0.050

> <Idih>
0.000

> <Tether>
0.000

$$$$
VeraChem MOL file


 17 16  0  0  0  0  0  0  0  0999 V2000     
   19.1496   17.5382   24.5253 C   0  0  0  0  0  0  0  0  0  0  0  0
   18.9527   16.3455   24.6534 O   0  5  0  0  0  0  0  0  0  0  0  0
   18.6979   18.3682   25.2918 O   0  0  0  0  0  0  0  0  0  0  0  0
   19.9851   17.9773   23.3749 C   0  0  0  0  0  0  0  0  0  0  0  0
   20.3567   17.1849   22.7295 H   0  0  0  0  0  0  0  0  0  0  0  0
   20.2829   19.2698   23.1098 C   0  0  0  0  0  0  0  0  0  0  0  0
   19.9116   20.0702   23.7493 H   0  0  0  0  0  0  0  0  0  0  0  0
   21.1315   19.7139   21.9363 C   0  0  0  0  0  0  0  0  0  0  0  0
   21.7066   18.8690   21.5337 H   0  0  0  0  0  0  0  0  0  0  0  0
   21.8705   20.4473   22.2857 H   0  0  0  0  0  0  0  0  0  0  0  0
   20.2876   20.3506   20.8105 C   0  0  0  0  0  0  0  0  0  0  0  0
   19.7099   21.1942   21.2129 H   0  0  0  0  0  0  0  0  0  0  0  0
   20.9615   20.7666   20.0489 H   0  0  0  0  0  0  0  0  0  0  0  0
   19.3334   19.3397   20.1393 C   0  0  0  0  0  0  0  0  0  0  0  0
   18.6010   18.9491   20.8576 H   0  0  0  0  0  0  0  0  0  0  0  0
   18.7797   19.8166   19.3202 H   0  0  0  0  0  0  0  0  0  0  0  0
   19.8909   18.4907   19.7227 H   0  0  0  0  0  0  0  0  0  0  0  0
  1  2  1  0  0  0  0
  1  3  2  0  0  0  0
  1  4  1  0  0  0  0
  4  5  1  0  0  0  0
  4  6  2  0  0  0  0
  6  7  1  0  0  0  0
  6  8  1  0  0  0  0
  8  9  1  0  0  0  0
  8 10  1  0  0  0  0
  8 11  1  0  0  0  0
 11 12  1  0  0  0  0
 11 13  1  0  0  0  0
 11 14  1  0  0  0  0
 14 15  1  0  0  0  0
 14 16  1  0  0  0  0
 14 17  1  0  0  0  0
M  END
> <VConfSearch Rank>
628

> <Conf_Id>
45

> <Delta U+W>
0.562

> <U+W>
-52.846

> <U>
10.243

> <W>
-63.089

> <W(PB)>
-65.116

> <W(SA)>
2.026

> <Valence>
2.822

> <Coulomb>
6.637

> <VdW>
0.785

> <VdW6>
-5.216

> <VdW12>
6.001

> <Bond>
0.080

> <Angle>
2.678

> <Pdih>
0.064

> <Idih>
0.000

> <Tether>
0.000

$$$$
VeraChem MOL file


 17 16  0  0  0  0  0  0  0  0999 V2000     
   19.2185   19.7291   18.6880 C   0  0  0  0  0  0  0  0  0  0  0  0
   18.9654   20.7866   18.1446 O   0  5  0  0  0  0  0  0  0  0  0  0
   19.0061   18.6507   18.1661 O   0  0  0  0  0  0  0  0  0  0  0  0
   19.8152   19.7815   20.0501 C   0  0  0  0  0  0  0  0  0  0  0  0
   19.9792   20.7761   20.4584 H   0  0  0  0  0  0  0  0  0  0  0  0
   20.1454   18.6859   20.7710 C   0  0  0  0  0  0  0  0  0  0  0  0
   19.9832   17.6846   20.3725 H   0  0  0  0  0  0  0  0  0  0  0  0
   20.7498   18.7480   22.1567 C   0  0  0  0  0  0  0  0  0  0  0  0
   21.4639   19.5805   22.2180 H   0  0  0  0  0  0  0  0  0  0  0  0
   21.3222   17.8306   22.3497 H   0  0  0  0  0  0  0  0  0  0  0  0
   19.6619   18.9145   23.2373 C   0  0  0  0  0  0  0  0  0  0  0  0
   19.0910   19.8342   23.0480 H   0  0  0  0  0  0  0  0  0  0  0  0
   18.9502   18.0796   23.1753 H   0  0  0  0  0  0  0  0  0  0  0  0
   20.2692   18.9692   24.6535 C   0  0  0  0  0  0  0  0  0  0  0  0
   20.8197   18.0468   24.8809 H   0  0  0  0  0  0  0  0  0  0  0  0
   20.9621   19.8152   24.7515 H   0  0  0  0  0  0  0  0  0  0  0  0
   19.4807   19.0879   25.4081 H   0  0  0  0  0  0  0  0  0  0  0  0
  1  2  1  0  0  0  0
  1  3  2  0  0  0  0
  1  4  1  0  0  0  0
  4  5  1  0  0  0  0
  4  6  2  0  0  0  0
  6  7  1  0  0  0  0
  6  8  1  0  0  0  0
  8  9  1  0  0  0  0
  8 10  1  0  0  0  0
  8 11  1  0  0  0  0
 11 12  1  0  0  0  0
 11 13  1  0  0  0  0
 11 14  1  0  0  0  0
 14 15  1  0  0  0  0
 14 16  1  0  0  0  0
 14 17  1  0  0  0  0
M  END
> <VConfSearch Rank>
629

> <Conf_Id>
36

> <Delta U+W>
0.000

> <U+W>
-53.409

> <U>
9.048

> <W>
-62.457

> <W(PB)>
-64.540

> <W(SA)>
2.084

> <Valence>
2.652

> <Coulomb>
5.578

> <VdW>
0.818

> <VdW6>
-4.534

> <VdW12>
5.352

> <Bond>
0.063

> <Angle>
2.579

> <Pdih>
0.010

> <Idih>
0.000

> <Tether>
0.000

$$$$
VeraChem MOL file


 17 16  0  0  0  0  0  0  0  0999 V2000     
   20.6573   22.3985   22.1116 C   0  0  0  0  0  0  0  0  0  0  0  0
   21.0783   22.6092   23.2336 O   0  5  0  0  0  0  0  0  0  0  0  0
   20.3494   23.2895   21.3441 O   0  0  0  0  0  0  0  0  0  0  0  0
   20.5051   20.9972   21.6349 C   0  0  0  0  0  0  0  0  0  0  0  0
   20.1242   20.8788   20.6231 H   0  0  0  0  0  0  0  0  0  0  0  0
   20.8075   19.9103   22.3807 C   0  0  0  0  0  0  0  0  0  0  0  0
   21.1878   20.0174   23.3964 H   0  0  0  0  0  0  0  0  0  0  0  0
   20.6481   18.4883   21.8889 C   0  0  0  0  0  0  0  0  0  0  0  0
   21.3334   17.8297   22.4394 H   0  0  0  0  0  0  0  0  0  0  0  0
   20.9345   18.4227   20.8304 H   0  0  0  0  0  0  0  0  0  0  0  0
   19.1991   17.9909   22.0679 C   0  0  0  0  0  0  0  0  0  0  0  0
   18.9158   18.0554   23.1277 H   0  0  0  0  0  0  0  0  0  0  0  0
   18.5125   18.6464   21.5144 H   0  0  0  0  0  0  0  0  0  0  0  0
   19.0305   16.5388   21.5775 C   0  0  0  0  0  0  0  0  0  0  0  0
   19.6837   15.8566   22.1372 H   0  0  0  0  0  0  0  0  0  0  0  0
   17.9942   16.2028   21.7128 H   0  0  0  0  0  0  0  0  0  0  0  0
   19.2780   16.4531   20.5112 H   0  0  0  0  0  0  0  0  0  0  0  0
  1  2  1  0  0  0  0
  1  3  2  0  0  0  0
  1  4  1  0  0  0  0
  4  5  1  0  0  0  0
  4  6  2  0  0  0  0
  6  7  1  0  0  0  0
  6  8  1  0  0  0  0
  8  9  1  0  0  0  0
  8 10  1  0  0  0  0
  8 11  1  0  0  0  0
 11 12  1  0  0  0  0
 11 13  1  0  0  0  0
 11 14  1  0  0  0  0
 14 15  1  0  0  0  0
 14 16  1  0  0  0  0
 14 17  1  0  0  0  0
M  END
> <VConfSearch Rank>
630

> <Conf_Id>
1

> <Delta U+W>
0.030

> <U+W>
-53.378

> <U>
9.048

> <W>
-62.426

> <W(PB)>
-64.506

> <W(SA)>
2.080

> <Valence>
2.652

> <Coulomb>
5.578

> <VdW>
0.818

> <VdW6>
-4.535

> <VdW12>
5.352

> <Bond>
0.063

> <Angle>
2.579

> <Pdih>
0.010

> <Idih>
0.000

> <Tether>
0.000

$$$$
VeraChem MOL file


 17 16  0  0  0  0  0  0  0  0999 V2000     
   20.0551   20.7558   19.4587 C   0  0  0  0  0  0  0  0  0  0  0  0
   20.6280   19.9856   18.7110 O   0  5  0  0  0  0  0  0  0  0  0  0
   19.4330   21.7215   19.0609 O   0  0  0  0  0  0  0  0  0  0  0  0
   20.1065   20.5290   20.9284 C   0  0  0  0  0  0  0  0  0  0  0  0
   19.5745   21.2545   21.5395 H   0  0  0  0  0  0  0  0  0  0  0  0
   20.7591   19.4968   21.5093 C   0  0  0  0  0  0  0  0  0  0  0  0
   21.2925   18.7623   20.9063 H   0  0  0  0  0  0  0  0  0  0  0  0
   20.8037   19.2702   23.0059 C   0  0  0  0  0  0  0  0  0  0  0  0
   20.9333   20.2321   23.5203 H   0  0  0  0  0  0  0  0  0  0  0  0
   21.6819   18.6637   23.2652 H   0  0  0  0  0  0  0  0  0  0  0  0
   19.5262   18.5816   23.5344 C   0  0  0  0  0  0  0  0  0  0  0  0
   19.5686   18.5392   24.6314 H   0  0  0  0  0  0  0  0  0  0  0  0
   18.6459   19.1868   23.2775 H   0  0  0  0  0  0  0  0  0  0  0  0
   19.3532   17.1511   22.9806 C   0  0  0  0  0  0  0  0  0  0  0  0
   20.2170   16.5238   23.2366 H   0  0  0  0  0  0  0  0  0  0  0  0
   18.4556   16.6802   23.4019 H   0  0  0  0  0  0  0  0  0  0  0  0
   19.2474   17.1595   21.8879 H   0  0  0  0  0  0  0  0  0  0  0  0
  1  2  1  0  0  0  0
  1  3  2  0  0  0  0
  1  4  1  0  0  0  0
  4  5  1  0  0  0  0
  4  6  2  0  0  0  0
  6  7  1  0  0  0  0
  6  8  1  0  0  0  0
  8  9  1  0  0  0  0
  8 10  1  0  0  0  0
  8 11  1  0  0  0  0
 11 12  1  0  0  0  0
 11 13  1  0  0  0  0
 11 14  1  0  0  0  0
 14 15  1  0  0  0  0
 14 16  1  0  0  0  0
 14 17  1  0  0  0  0
M  END
> <VConfSearch Rank>
631

> <Conf_Id>
3

> <Delta U+W>
0.531

> <U+W>
-52.878

> <U>
10.067

> <W>
-62.945

> <W(PB)>
-64.982

> <W(SA)>
2.037

> <Valence>
2.779

> <Coulomb>
6.474

> <VdW>
0.815

> <VdW6>
-5.088

> <VdW12>
5.902

> <Bond>
0.078

> <Angle>
2.651

> <Pdih>
0.050

> <Idih>
0.000

> <Tether>
0.000

$$$$
VeraChem MOL file


 17 16  0  0  0  0  0  0  0  0999 V2000     
   21.6960   16.9515   20.8319 C   0  0  0  0  0  0  0  0  0  0  0  0
   21.4057   15.8147   20.5137 O   0  5  0  0  0  0  0  0  0  0  0  0
   22.8419   17.3099   21.0287 O   0  0  0  0  0  0  0  0  0  0  0  0
   20.5842   17.9297   20.9775 C   0  0  0  0  0  0  0  0  0  0  0  0
   19.5855   17.5437   20.7872 H   0  0  0  0  0  0  0  0  0  0  0  0
   20.7605   19.2242   21.3278 C   0  0  0  0  0  0  0  0  0  0  0  0
   21.7575   19.6182   21.5238 H   0  0  0  0  0  0  0  0  0  0  0  0
   19.6264   20.2170   21.4780 C   0  0  0  0  0  0  0  0  0  0  0  0
   18.7199   19.8462   20.9804 H   0  0  0  0  0  0  0  0  0  0  0  0
   19.8963   21.1497   20.9650 H   0  0  0  0  0  0  0  0  0  0  0  0
   19.3146   20.5312   22.9575 C   0  0  0  0  0  0  0  0  0  0  0  0
   20.2216   20.8996   23.4567 H   0  0  0  0  0  0  0  0  0  0  0  0
   18.5783   21.3455   23.0036 H   0  0  0  0  0  0  0  0  0  0  0  0
   18.7609   19.3088   23.7204 C   0  0  0  0  0  0  0  0  0  0  0  0
   19.4965   18.4947   23.7515 H   0  0  0  0  0  0  0  0  0  0  0  0
   18.5144   19.5789   24.7554 H   0  0  0  0  0  0  0  0  0  0  0  0
   17.8487   18.9282   23.2428 H   0  0  0  0  0  0  0  0  0  0  0  0
  1  2  1  0  0  0  0
  1  3  2  0  0  0  0
  1  4  1  0  0  0  0
  4  5  1  0  0  0  0
  4  6  2  0  0  0  0
  6  7  1  0  0  0  0
  6  8  1  0  0  0  0
  8  9  1  0  0  0  0
  8 10  1  0  0  0  0
  8 11  1  0  0  0  0
 11 12  1  0  0  0  0
 11 13  1  0  0  0  0
 11 14  1  0  0  0  0
 14 15  1  0  0  0  0
 14 16  1  0  0  0  0
 14 17  1  0  0  0  0
M  END
> <VConfSearch Rank>
632

> <Conf_Id>
45

> <Delta U+W>
0.562

> <U+W>
-52.846

> <U>
10.243

> <W>
-63.089

> <W(PB)>
-65.116

> <W(SA)>
2.026

> <Valence>
2.822

> <Coulomb>
6.637

> <VdW>
0.785

> <VdW6>
-5.216

> <VdW12>
6.001

> <Bond>
0.080

> <Angle>
2.678

> <Pdih>
0.064

> <Idih>
0.000

> <Tether>
0.000

$$$$
VeraChem MOL file


 17 16  0  0  0  0  0  0  0  0999 V2000     
   17.5769   20.7347   23.6237 C   0  0  0  0  0  0  0  0  0  0  0  0
   16.3962   20.4649   23.7283 O   0  5  0  0  0  0  0  0  0  0  0  0
   18.0420   21.8069   23.9621 O   0  0  0  0  0  0  0  0  0  0  0  0
   18.4729   19.6914   23.0555 C   0  0  0  0  0  0  0  0  0  0  0  0
   17.9937   18.7566   22.7736 H   0  0  0  0  0  0  0  0  0  0  0  0
   19.8040   19.8546   22.8810 C   0  0  0  0  0  0  0  0  0  0  0  0
   20.2939   20.7880   23.1579 H   0  0  0  0  0  0  0  0  0  0  0  0
   20.7079   18.7892   22.3004 C   0  0  0  0  0  0  0  0  0  0  0  0
   20.4021   17.7985   22.6635 H   0  0  0  0  0  0  0  0  0  0  0  0
   21.7362   18.9473   22.6525 H   0  0  0  0  0  0  0  0  0  0  0  0
   20.6815   18.8093   20.7583 C   0  0  0  0  0  0  0  0  0  0  0  0
   19.6540   18.6470   20.4043 H   0  0  0  0  0  0  0  0  0  0  0  0
   20.9897   19.8005   20.3975 H   0  0  0  0  0  0  0  0  0  0  0  0
   21.6076   17.7323   20.1585 C   0  0  0  0  0  0  0  0  0  0  0  0
   22.6481   17.8901   20.4714 H   0  0  0  0  0  0  0  0  0  0  0  0
   21.3015   16.7279   20.4795 H   0  0  0  0  0  0  0  0  0  0  0  0
   21.5756   17.7619   19.0616 H   0  0  0  0  0  0  0  0  0  0  0  0
  1  2  1  0  0  0  0
  1  3  2  0  0  0  0
  1  4  1  0  0  0  0
  4  5  1  0  0  0  0
  4  6  2  0  0  0  0
  6  7  1  0  0  0  0
  6  8  1  0  0  0  0
  8  9  1  0  0  0  0
  8 10  1  0  0  0  0
  8 11  1  0  0  0  0
 11 12  1  0  0  0  0
 11 13  1  0  0  0  0
 11 14  1  0  0  0  0
 14 15  1  0  0  0  0
 14 16  1  0  0  0  0
 14 17  1  0  0  0  0
M  END
> <VConfSearch Rank>
633

> <Conf_Id>
36

> <Delta U+W>
0.000

> <U+W>
-53.409

> <U>
9.048

> <W>
-62.457

> <W(PB)>
-64.540

> <W(SA)>
2.084

> <Valence>
2.652

> <Coulomb>
5.578

> <VdW>
0.818

> <VdW6>
-4.534

> <VdW12>
5.352

> <Bond>
0.063

> <Angle>
2.579

> <Pdih>
0.010

> <Idih>
0.000

> <Tether>
0.000

$$$$
VeraChem MOL file


 17 16  0  0  0  0  0  0  0  0999 V2000     
   20.3327   22.4013   22.4910 C   0  0  0  0  0  0  0  0  0  0  0  0
   19.6706   22.6518   23.4806 O   0  5  0  0  0  0  0  0  0  0  0  0
   20.8075   23.2643   21.7786 O   0  0  0  0  0  0  0  0  0  0  0  0
   20.5872   20.9838   22.1166 C   0  0  0  0  0  0  0  0  0  0  0  0
   21.1859   20.8294   21.2218 H   0  0  0  0  0  0  0  0  0  0  0  0
   20.1206   19.9241   22.8156 C   0  0  0  0  0  0  0  0  0  0  0  0
   19.5180   20.0674   23.7123 H   0  0  0  0  0  0  0  0  0  0  0  0
   20.3825   18.4855   22.4269 C   0  0  0  0  0  0  0  0  0  0  0  0
   20.3109   17.8453   23.3165 H   0  0  0  0  0  0  0  0  0  0  0  0
   21.4081   18.3798   22.0476 H   0  0  0  0  0  0  0  0  0  0  0  0
   19.3802   18.0003   21.3598 C   0  0  0  0  0  0  0  0  0  0  0  0
   18.3553   18.1051   21.7423 H   0  0  0  0  0  0  0  0  0  0  0  0
   19.4535   18.6373   20.4674 H   0  0  0  0  0  0  0  0  0  0  0  0
   19.6347   16.5317   20.9649 C   0  0  0  0  0  0  0  0  0  0  0  0
   19.5361   15.8683   21.8342 H   0  0  0  0  0  0  0  0  0  0  0  0
   18.9125   16.2047   20.2056 H   0  0  0  0  0  0  0  0  0  0  0  0
   20.6433   16.4056   20.5499 H   0  0  0  0  0  0  0  0  0  0  0  0
  1  2  1  0  0  0  0
  1  3  2  0  0  0  0
  1  4  1  0  0  0  0
  4  5  1  0  0  0  0
  4  6  2  0  0  0  0
  6  7  1  0  0  0  0
  6  8  1  0  0  0  0
  8  9  1  0  0  0  0
  8 10  1  0  0  0  0
  8 11  1  0  0  0  0
 11 12  1  0  0  0  0
 11 13  1  0  0  0  0
 11 14  1  0  0  0  0
 14 15  1  0  0  0  0
 14 16  1  0  0  0  0
 14 17  1  0  0  0  0
M  END
> <VConfSearch Rank>
634

> <Conf_Id>
1

> <Delta U+W>
0.030

> <U+W>
-53.378

> <U>
9.048

> <W>
-62.426

> <W(PB)>
-64.506

> <W(SA)>
2.080

> <Valence>
2.652

> <Coulomb>
5.578

> <VdW>
0.818

> <VdW6>
-4.535

> <VdW12>
5.352

> <Bond>
0.063

> <Angle>
2.579

> <Pdih>
0.010

> <Idih>
0.000

> <Tether>
0.000

$$$$
VeraChem MOL file


 17 16  0  0  0  0  0  0  0  0999 V2000     
   18.1802   17.4616   23.9167 C   0  0  0  0  0  0  0  0  0  0  0  0
   19.0110   16.8715   24.5816 O   0  5  0  0  0  0  0  0  0  0  0  0
   17.0122   17.5455   24.2431 O   0  0  0  0  0  0  0  0  0  0  0  0
   18.5865   18.1144   22.6428 C   0  0  0  0  0  0  0  0  0  0  0  0
   17.7955   18.6237   22.0970 H   0  0  0  0  0  0  0  0  0  0  0  0
   19.8493   18.1022   22.1590 C   0  0  0  0  0  0  0  0  0  0  0  0
   20.6501   17.5978   22.6993 H   0  0  0  0  0  0  0  0  0  0  0  0
   20.2561   18.7722   20.8633 C   0  0  0  0  0  0  0  0  0  0  0  0
   19.4807   18.6057   20.1034 H   0  0  0  0  0  0  0  0  0  0  0  0
   21.1714   18.3064   20.4740 H   0  0  0  0  0  0  0  0  0  0  0  0
   20.4814   20.2908   21.0325 C   0  0  0  0  0  0  0  0  0  0  0  0
   20.6692   20.7381   20.0467 H   0  0  0  0  0  0  0  0  0  0  0  0
   19.5667   20.7600   21.4208 H   0  0  0  0  0  0  0  0  0  0  0  0
   21.6674   20.6124   21.9667 C   0  0  0  0  0  0  0  0  0  0  0  0
   22.5961   20.1634   21.5910 H   0  0  0  0  0  0  0  0  0  0  0  0
   21.8198   21.6971   22.0375 H   0  0  0  0  0  0  0  0  0  0  0  0
   21.4879   20.2311   22.9804 H   0  0  0  0  0  0  0  0  0  0  0  0
  1  2  1  0  0  0  0
  1  3  2  0  0  0  0
  1  4  1  0  0  0  0
  4  5  1  0  0  0  0
  4  6  2  0  0  0  0
  6  7  1  0  0  0  0
  6  8  1  0  0  0  0
  8  9  1  0  0  0  0
  8 10  1  0  0  0  0
  8 11  1  0  0  0  0
 11 12  1  0  0  0  0
 11 13  1  0  0  0  0
 11 14  1  0  0  0  0
 14 15  1  0  0  0  0
 14 16  1  0  0  0  0
 14 17  1  0  0  0  0
M  END
> <VConfSearch Rank>
635

> <Conf_Id>
3

> <Delta U+W>
0.531

> <U+W>
-52.878

> <U>
10.067

> <W>
-62.945

> <W(PB)>
-64.982

> <W(SA)>
2.037

> <Valence>
2.779

> <Coulomb>
6.474

> <VdW>
0.815

> <VdW6>
-5.088

> <VdW12>
5.902

> <Bond>
0.078

> <Angle>
2.651

> <Pdih>
0.050

> <Idih>
0.000

> <Tether>
0.000

$$$$
VeraChem MOL file


 17 16  0  0  0  0  0  0  0  0999 V2000     
   18.9838   19.6562   24.8734 C   0  0  0  0  0  0  0  0  0  0  0  0
   19.3052   20.5356   25.6487 O   0  5  0  0  0  0  0  0  0  0  0  0
   18.4507   18.6227   25.2312 O   0  0  0  0  0  0  0  0  0  0  0  0
   19.2622   19.8781   23.4286 C   0  0  0  0  0  0  0  0  0  0  0  0
   19.7400   20.8223   23.1776 H   0  0  0  0  0  0  0  0  0  0  0  0
   18.9610   18.9861   22.4574 C   0  0  0  0  0  0  0  0  0  0  0  0
   18.4855   18.0362   22.7006 H   0  0  0  0  0  0  0  0  0  0  0  0
   19.2481   19.2137   20.9877 C   0  0  0  0  0  0  0  0  0  0  0  0
   19.4332   20.2784   20.7905 H   0  0  0  0  0  0  0  0  0  0  0  0
   18.3582   18.9452   20.4030 H   0  0  0  0  0  0  0  0  0  0  0  0
   20.4466   18.3775   20.4883 C   0  0  0  0  0  0  0  0  0  0  0  0
   20.2634   17.3125   20.6875 H   0  0  0  0  0  0  0  0  0  0  0  0
   20.5278   18.4832   19.3976 H   0  0  0  0  0  0  0  0  0  0  0  0
   21.7808   18.8060   21.1357 C   0  0  0  0  0  0  0  0  0  0  0  0
   21.7607   18.6535   22.2226 H   0  0  0  0  0  0  0  0  0  0  0  0
   22.6137   18.2181   20.7290 H   0  0  0  0  0  0  0  0  0  0  0  0
   21.9880   19.8666   20.9425 H   0  0  0  0  0  0  0  0  0  0  0  0
  1  2  1  0  0  0  0
  1  3  2  0  0  0  0
  1  4  1  0  0  0  0
  4  5  1  0  0  0  0
  4  6  2  0  0  0  0
  6  7  1  0  0  0  0
  6  8  1  0  0  0  0
  8  9  1  0  0  0  0
  8 10  1  0  0  0  0
  8 11  1  0  0  0  0
 11 12  1  0  0  0  0
 11 13  1  0  0  0  0
 11 14  1  0  0  0  0
 14 15  1  0  0  0  0
 14 16  1  0  0  0  0
 14 17  1  0  0  0  0
M  END
> <VConfSearch Rank>
636

> <Conf_Id>
45

> <Delta U+W>
0.562

> <U+W>
-52.846

> <U>
10.243

> <W>
-63.089

> <W(PB)>
-65.116

> <W(SA)>
2.026

> <Valence>
2.822

> <Coulomb>
6.637

> <VdW>
0.785

> <VdW6>
-5.216

> <VdW12>
6.001

> <Bond>
0.080

> <Angle>
2.678

> <Pdih>
0.064

> <Idih>
0.000

> <Tether>
0.000

$$$$
VeraChem MOL file


 17 16  0  0  0  0  0  0  0  0999 V2000     
   17.9374   19.3575   19.2500 C   0  0  0  0  0  0  0  0  0  0  0  0
   17.0299   20.1402   19.0465 O   0  5  0  0  0  0  0  0  0  0  0  0
   18.1063   18.3539   18.5831 O   0  0  0  0  0  0  0  0  0  0  0  0
   18.8704   19.6623   20.3683 C   0  0  0  0  0  0  0  0  0  0  0  0
   18.6633   20.5739   20.9241 H   0  0  0  0  0  0  0  0  0  0  0  0
   19.9208   18.8809   20.7079 C   0  0  0  0  0  0  0  0  0  0  0  0
   20.1360   17.9641   20.1592 H   0  0  0  0  0  0  0  0  0  0  0  0
   20.8637   19.1969   21.8481 C   0  0  0  0  0  0  0  0  0  0  0  0
   21.0526   20.2783   21.8905 H   0  0  0  0  0  0  0  0  0  0  0  0
   21.8348   18.7170   21.6662 H   0  0  0  0  0  0  0  0  0  0  0  0
   20.2945   18.7147   23.1981 C   0  0  0  0  0  0  0  0  0  0  0  0
   19.3248   19.1972   23.3836 H   0  0  0  0  0  0  0  0  0  0  0  0
   20.1083   17.6326   23.1539 H   0  0  0  0  0  0  0  0  0  0  0  0
   21.2541   19.0247   24.3645 C   0  0  0  0  0  0  0  0  0  0  0  0
   22.2222   18.5275   24.2197 H   0  0  0  0  0  0  0  0  0  0  0  0
   21.4325   20.1047   24.4500 H   0  0  0  0  0  0  0  0  0  0  0  0
   20.8323   18.6747   25.3157 H   0  0  0  0  0  0  0  0  0  0  0  0
  1  2  1  0  0  0  0
  1  3  2  0  0  0  0
  1  4  1  0  0  0  0
  4  5  1  0  0  0  0
  4  6  2  0  0  0  0
  6  7  1  0  0  0  0
  6  8  1  0  0  0  0
  8  9  1  0  0  0  0
  8 10  1  0  0  0  0
  8 11  1  0  0  0  0
 11 12  1  0  0  0  0
 11 13  1  0  0  0  0
 11 14  1  0  0  0  0
 14 15  1  0  0  0  0
 14 16  1  0  0  0  0
 14 17  1  0  0  0  0
M  END
> <VConfSearch Rank>
637

> <Conf_Id>
36

> <Delta U+W>
0.000

> <U+W>
-53.409

> <U>
9.048

> <W>
-62.457

> <W(PB)>
-64.540

> <W(SA)>
2.084

> <Valence>
2.652

> <Coulomb>
5.578

> <VdW>
0.818

> <VdW6>
-4.534

> <VdW12>
5.352

> <Bond>
0.063

> <Angle>
2.579

> <Pdih>
0.010

> <Idih>
0.000

> <Tether>
0.000

$$$$
VeraChem MOL file


 17 16  0  0  0  0  0  0  0  0999 V2000     
   21.0168   20.0991   24.9731 C   0  0  0  0  0  0  0  0  0  0  0  0
   20.0870   20.7098   25.4658 O   0  5  0  0  0  0  0  0  0  0  0  0
   22.1305   20.0867   25.4603 O   0  0  0  0  0  0  0  0  0  0  0  0
   20.8059   19.3248   23.7200 C   0  0  0  0  0  0  0  0  0  0  0  0
   21.6775   18.8021   23.3328 H   0  0  0  0  0  0  0  0  0  0  0  0
   19.6223   19.2509   23.0699 C   0  0  0  0  0  0  0  0  0  0  0  0
   18.7432   19.7725   23.4479 H   0  0  0  0  0  0  0  0  0  0  0  0
   19.4168   18.4626   21.7949 C   0  0  0  0  0  0  0  0  0  0  0  0
   18.3587   18.1832   21.7018 H   0  0  0  0  0  0  0  0  0  0  0  0
   19.9853   17.5237   21.8380 H   0  0  0  0  0  0  0  0  0  0  0  0
   19.8469   19.2751   20.5564 C   0  0  0  0  0  0  0  0  0  0  0  0
   19.2754   20.2127   20.5142 H   0  0  0  0  0  0  0  0  0  0  0  0
   20.9066   19.5521   20.6460 H   0  0  0  0  0  0  0  0  0  0  0  0
   19.6318   18.4820   19.2517 C   0  0  0  0  0  0  0  0  0  0  0  0
   18.5738   18.2194   19.1213 H   0  0  0  0  0  0  0  0  0  0  0  0
   19.9432   19.0756   18.3824 H   0  0  0  0  0  0  0  0  0  0  0  0
   20.2177   17.5535   19.2553 H   0  0  0  0  0  0  0  0  0  0  0  0
  1  2  1  0  0  0  0
  1  3  2  0  0  0  0
  1  4  1  0  0  0  0
  4  5  1  0  0  0  0
  4  6  2  0  0  0  0
  6  7  1  0  0  0  0
  6  8  1  0  0  0  0
  8  9  1  0  0  0  0
  8 10  1  0  0  0  0
  8 11  1  0  0  0  0
 11 12  1  0  0  0  0
 11 13  1  0  0  0  0
 11 14  1  0  0  0  0
 14 15  1  0  0  0  0
 14 16  1  0  0  0  0
 14 17  1  0  0  0  0
M  END
> <VConfSearch Rank>
638

> <Conf_Id>
1

> <Delta U+W>
0.030

> <U+W>
-53.378

> <U>
9.048

> <W>
-62.426

> <W(PB)>
-64.506

> <W(SA)>
2.080

> <Valence>
2.652

> <Coulomb>
5.578

> <VdW>
0.818

> <VdW6>
-4.535

> <VdW12>
5.352

> <Bond>
0.063

> <Angle>
2.579

> <Pdih>
0.010

> <Idih>
0.000

> <Tether>
0.000

$$$$
VeraChem MOL file


 17 16  0  0  0  0  0  0  0  0999 V2000     
   17.0573   18.9459   22.9005 C   0  0  0  0  0  0  0  0  0  0  0  0
   16.7638   17.8394   22.4880 O   0  5  0  0  0  0  0  0  0  0  0  0
   16.3731   19.5552   23.6995 O   0  0  0  0  0  0  0  0  0  0  0  0
   18.3014   19.6044   22.4180 C   0  0  0  0  0  0  0  0  0  0  0  0
   18.5042   20.5922   22.8252 H   0  0  0  0  0  0  0  0  0  0  0  0
   19.1559   19.0439   21.5321 C   0  0  0  0  0  0  0  0  0  0  0  0
   18.9641   18.0533   21.1205 H   0  0  0  0  0  0  0  0  0  0  0  0
   20.4223   19.7187   21.0486 C   0  0  0  0  0  0  0  0  0  0  0  0
   20.2277   20.7855   20.8740 H   0  0  0  0  0  0  0  0  0  0  0  0
   20.7213   19.2992   20.0786 H   0  0  0  0  0  0  0  0  0  0  0  0
   21.5857   19.5744   22.0542 C   0  0  0  0  0  0  0  0  0  0  0  0
   22.4403   20.1687   21.7025 H   0  0  0  0  0  0  0  0  0  0  0  0
   21.2900   19.9944   23.0256 H   0  0  0  0  0  0  0  0  0  0  0  0
   22.0319   18.1079   22.2361 C   0  0  0  0  0  0  0  0  0  0  0  0
   22.3443   17.6709   21.2787 H   0  0  0  0  0  0  0  0  0  0  0  0
   22.8802   18.0459   22.9299 H   0  0  0  0  0  0  0  0  0  0  0  0
   21.2182   17.4940   22.6439 H   0  0  0  0  0  0  0  0  0  0  0  0
  1  2  1  0  0  0  0
  1  3  2  0  0  0  0
  1  4  1  0  0  0  0
  4  5  1  0  0  0  0
  4  6  2  0  0  0  0
  6  7  1  0  0  0  0
  6  8  1  0  0  0  0
  8  9  1  0  0  0  0
  8 10  1  0  0  0  0
  8 11  1  0  0  0  0
 11 12  1  0  0  0  0
 11 13  1  0  0  0  0
 11 14  1  0  0  0  0
 14 15  1  0  0  0  0
 14 16  1  0  0  0  0
 14 17  1  0  0  0  0
M  END
> <VConfSearch Rank>
639

> <Conf_Id>
3

> <Delta U+W>
0.531

> <U+W>
-52.878

> <U>
10.067

> <W>
-62.945

> <W(PB)>
-64.982

> <W(SA)>
2.037

> <Valence>
2.779

> <Coulomb>
6.474

> <VdW>
0.815

> <VdW6>
-5.088

> <VdW12>
5.902

> <Bond>
0.078

> <Angle>
2.651

> <Pdih>
0.050

> <Idih>
0.000

> <Tether>
0.000

$$$$
VeraChem MOL file


 17 16  0  0  0  0  0  0  0  0999 V2000     
   17.9995   19.9216   19.9478 C   0  0  0  0  0  0  0  0  0  0  0  0
   17.9993   20.9008   19.2274 O   0  5  0  0  0  0  0  0  0  0  0  0
   16.9969   19.2723   20.1797 O   0  0  0  0  0  0  0  0  0  0  0  0
   19.2949   19.5177   20.5583 C   0  0  0  0  0  0  0  0  0  0  0  0
   20.1507   20.1410   20.3098 H   0  0  0  0  0  0  0  0  0  0  0  0
   19.4413   18.4531   21.3799 C   0  0  0  0  0  0  0  0  0  0  0  0
   18.5883   17.8255   21.6370 H   0  0  0  0  0  0  0  0  0  0  0  0
   20.7609   18.0460   22.0021 C   0  0  0  0  0  0  0  0  0  0  0  0
   21.5998   18.5166   21.4715 H   0  0  0  0  0  0  0  0  0  0  0  0
   20.8940   16.9624   21.8833 H   0  0  0  0  0  0  0  0  0  0  0  0
   20.8340   18.3979   23.5041 C   0  0  0  0  0  0  0  0  0  0  0  0
   19.9937   17.9297   24.0352 H   0  0  0  0  0  0  0  0  0  0  0  0
   21.7519   17.9684   23.9286 H   0  0  0  0  0  0  0  0  0  0  0  0
   20.8269   19.9204   23.7585 C   0  0  0  0  0  0  0  0  0  0  0  0
   19.8934   20.3768   23.4045 H   0  0  0  0  0  0  0  0  0  0  0  0
   20.9194   20.1330   24.8314 H   0  0  0  0  0  0  0  0  0  0  0  0
   21.6640   20.4085   23.2426 H   0  0  0  0  0  0  0  0  0  0  0  0
  1  2  1  0  0  0  0
  1  3  2  0  0  0  0
  1  4  1  0  0  0  0
  4  5  1  0  0  0  0
  4  6  2  0  0  0  0
  6  7  1  0  0  0  0
  6  8  1  0  0  0  0
  8  9  1  0  0  0  0
  8 10  1  0  0  0  0
  8 11  1  0  0  0  0
 11 12  1  0  0  0  0
 11 13  1  0  0  0  0
 11 14  1  0  0  0  0
 14 15  1  0  0  0  0
 14 16  1  0  0  0  0
 14 17  1  0  0  0  0
M  END
> <VConfSearch Rank>
640

> <Conf_Id>
45

> <Delta U+W>
0.562

> <U+W>
-52.846

> <U>
10.243

> <W>
-63.089

> <W(PB)>
-65.116

> <W(SA)>
2.026

> <Valence>
2.822

> <Coulomb>
6.637

> <VdW>
0.785

> <VdW6>
-5.216

> <VdW12>
6.001

> <Bond>
0.080

> <Angle>
2.678

> <Pdih>
0.064

> <Idih>
0.000

> <Tether>
0.000

$$$$
VeraChem MOL file


 17 16  0  0  0  0  0  0  0  0999 V2000     
   19.9728   18.3462   25.1972 C   0  0  0  0  0  0  0  0  0  0  0  0
   19.0688   18.4415   26.0043 O   0  5  0  0  0  0  0  0  0  0  0  0
   21.1295   18.1517   25.5206 O   0  0  0  0  0  0  0  0  0  0  0  0
   19.6244   18.4752   23.7563 C   0  0  0  0  0  0  0  0  0  0  0  0
   18.5735   18.6481   23.5358 H   0  0  0  0  0  0  0  0  0  0  0  0
   20.5266   18.3919   22.7523 C   0  0  0  0  0  0  0  0  0  0  0  0
   21.5824   18.2213   22.9621 H   0  0  0  0  0  0  0  0  0  0  0  0
   20.1643   18.5264   21.2894 C   0  0  0  0  0  0  0  0  0  0  0  0
   19.2012   18.0352   21.0944 H   0  0  0  0  0  0  0  0  0  0  0  0
   20.9111   18.0045   20.6760 H   0  0  0  0  0  0  0  0  0  0  0  0
   20.0894   20.0068   20.8629 C   0  0  0  0  0  0  0  0  0  0  0  0
   19.3396   20.5295   21.4729 H   0  0  0  0  0  0  0  0  0  0  0  0
   21.0544   20.4953   21.0571 H   0  0  0  0  0  0  0  0  0  0  0  0
   19.7298   20.1523   19.3706 C   0  0  0  0  0  0  0  0  0  0  0  0
   20.4815   19.6651   18.7359 H   0  0  0  0  0  0  0  0  0  0  0  0
   18.7534   19.6986   19.1558 H   0  0  0  0  0  0  0  0  0  0  0  0
   19.6811   21.2115   19.0861 H   0  0  0  0  0  0  0  0  0  0  0  0
  1  2  1  0  0  0  0
  1  3  2  0  0  0  0
  1  4  1  0  0  0  0
  4  5  1  0  0  0  0
  4  6  2  0  0  0  0
  6  7  1  0  0  0  0
  6  8  1  0  0  0  0
  8  9  1  0  0  0  0
  8 10  1  0  0  0  0
  8 11  1  0  0  0  0
 11 12  1  0  0  0  0
 11 13  1  0  0  0  0
 11 14  1  0  0  0  0
 14 15  1  0  0  0  0
 14 16  1  0  0  0  0
 14 17  1  0  0  0  0
M  END
> <VConfSearch Rank>
641

> <Conf_Id>
36

> <Delta U+W>
0.000

> <U+W>
-53.409

> <U>
9.048

> <W>
-62.457

> <W(PB)>
-64.540

> <W(SA)>
2.084

> <Valence>
2.652

> <Coulomb>
5.578

> <VdW>
0.818

> <VdW6>
-4.534

> <VdW12>
5.352

> <Bond>
0.063

> <Angle>
2.579

> <Pdih>
0.010

> <Idih>
0.000

> <Tether>
0.000

$$$$
VeraChem MOL file


 17 16  0  0  0  0  0  0  0  0999 V2000     
   22.4132   17.3390   23.5088 C   0  0  0  0  0  0  0  0  0  0  0  0
   23.2028   18.1488   23.9572 O   0  5  0  0  0  0  0  0  0  0  0  0
   22.6322   16.1434   23.4912 O   0  0  0  0  0  0  0  0  0  0  0  0
   21.1150   17.8084   22.9532 C   0  0  0  0  0  0  0  0  0  0  0  0
   20.4554   17.0337   22.5688 H   0  0  0  0  0  0  0  0  0  0  0  0
   20.7402   19.1070   22.9075 C   0  0  0  0  0  0  0  0  0  0  0  0
   21.3942   19.8915   23.2878 H   0  0  0  0  0  0  0  0  0  0  0  0
   19.4188   19.5762   22.3391 C   0  0  0  0  0  0  0  0  0  0  0  0
   19.1463   20.5402   22.7893 H   0  0  0  0  0  0  0  0  0  0  0  0
   18.6221   18.8693   22.6081 H   0  0  0  0  0  0  0  0  0  0  0  0
   19.4876   19.7238   20.8053 C   0  0  0  0  0  0  0  0  0  0  0  0
   20.2837   20.4329   20.5388 H   0  0  0  0  0  0  0  0  0  0  0  0
   19.7561   18.7590   20.3530 H   0  0  0  0  0  0  0  0  0  0  0  0
   18.1471   20.2106   20.2191 C   0  0  0  0  0  0  0  0  0  0  0  0
   17.8703   21.1898   20.6314 H   0  0  0  0  0  0  0  0  0  0  0  0
   18.2154   20.3096   19.1279 H   0  0  0  0  0  0  0  0  0  0  0  0
   17.3392   19.5024   20.4451 H   0  0  0  0  0  0  0  0  0  0  0  0
  1  2  1  0  0  0  0
  1  3  2  0  0  0  0
  1  4  1  0  0  0  0
  4  5  1  0  0  0  0
  4  6  2  0  0  0  0
  6  7  1  0  0  0  0
  6  8  1  0  0  0  0
  8  9  1  0  0  0  0
  8 10  1  0  0  0  0
  8 11  1  0  0  0  0
 11 12  1  0  0  0  0
 11 13  1  0  0  0  0
 11 14  1  0  0  0  0
 14 15  1  0  0  0  0
 14 16  1  0  0  0  0
 14 17  1  0  0  0  0
M  END
> <VConfSearch Rank>
642

> <Conf_Id>
1

> <Delta U+W>
0.030

> <U+W>
-53.378

> <U>
9.048

> <W>
-62.426

> <W(PB)>
-64.506

> <W(SA)>
2.080

> <Valence>
2.652

> <Coulomb>
5.578

> <VdW>
0.818

> <VdW6>
-4.535

> <VdW12>
5.352

> <Bond>
0.063

> <Angle>
2.579

> <Pdih>
0.010

> <Idih>
0.000

> <Tether>
0.000

$$$$
VeraChem MOL file


 17 16  0  0  0  0  0  0  0  0999 V2000     
   22.3176   20.6165   20.6834 C   0  0  0  0  0  0  0  0  0  0  0  0
   21.7188   21.5933   20.2739 O   0  5  0  0  0  0  0  0  0  0  0  0
   23.5301   20.5682   20.7556 O   0  0  0  0  0  0  0  0  0  0  0  0
   21.5548   19.4148   21.1173 C   0  0  0  0  0  0  0  0  0  0  0  0
   22.1506   18.5767   21.4714 H   0  0  0  0  0  0  0  0  0  0  0  0
   20.2054   19.3293   21.0926 C   0  0  0  0  0  0  0  0  0  0  0  0
   19.5986   20.1642   20.7429 H   0  0  0  0  0  0  0  0  0  0  0  0
   19.4357   18.1042   21.5395 C   0  0  0  0  0  0  0  0  0  0  0  0
   19.9512   17.1985   21.1923 H   0  0  0  0  0  0  0  0  0  0  0  0
   18.4448   18.0930   21.0659 H   0  0  0  0  0  0  0  0  0  0  0  0
   19.2753   18.0385   23.0743 C   0  0  0  0  0  0  0  0  0  0  0  0
   18.8057   17.0830   23.3458 H   0  0  0  0  0  0  0  0  0  0  0  0
   20.2653   18.0482   23.5509 H   0  0  0  0  0  0  0  0  0  0  0  0
   18.4196   19.1970   23.6296 C   0  0  0  0  0  0  0  0  0  0  0  0
   17.4199   19.1993   23.1759 H   0  0  0  0  0  0  0  0  0  0  0  0
   18.2983   19.1006   24.7163 H   0  0  0  0  0  0  0  0  0  0  0  0
   18.8897   20.1684   23.4284 H   0  0  0  0  0  0  0  0  0  0  0  0
  1  2  1  0  0  0  0
  1  3  2  0  0  0  0
  1  4  1  0  0  0  0
  4  5  1  0  0  0  0
  4  6  2  0  0  0  0
  6  7  1  0  0  0  0
  6  8  1  0  0  0  0
  8  9  1  0  0  0  0
  8 10  1  0  0  0  0
  8 11  1  0  0  0  0
 11 12  1  0  0  0  0
 11 13  1  0  0  0  0
 11 14  1  0  0  0  0
 14 15  1  0  0  0  0
 14 16  1  0  0  0  0
 14 17  1  0  0  0  0
M  END
> <VConfSearch Rank>
643

> <Conf_Id>
3

> <Delta U+W>
0.531

> <U+W>
-52.878

> <U>
10.067

> <W>
-62.945

> <W(PB)>
-64.982

> <W(SA)>
2.037

> <Valence>
2.779

> <Coulomb>
6.474

> <VdW>
0.815

> <VdW6>
-5.088

> <VdW12>
5.902

> <Bond>
0.078

> <Angle>
2.651

> <Pdih>
0.050

> <Idih>
0.000

> <Tether>
0.000

$$$$
VeraChem MOL file


 17 16  0  0  0  0  0  0  0  0999 V2000     
   17.8753   21.2677   22.0891 C   0  0  0  0  0  0  0  0  0  0  0  0
   16.6754   21.1823   22.2639 O   0  5  0  0  0  0  0  0  0  0  0  0
   18.3955   22.2157   21.5312 O   0  0  0  0  0  0  0  0  0  0  0  0
   18.7241   20.1534   22.5911 C   0  0  0  0  0  0  0  0  0  0  0  0
   18.1956   19.3381   23.0796 H   0  0  0  0  0  0  0  0  0  0  0  0
   20.0702   20.1152   22.4638 C   0  0  0  0  0  0  0  0  0  0  0  0
   20.6073   20.9261   21.9725 H   0  0  0  0  0  0  0  0  0  0  0  0
   20.9313   18.9780   22.9735 C   0  0  0  0  0  0  0  0  0  0  0  0
   20.3785   18.3722   23.7042 H   0  0  0  0  0  0  0  0  0  0  0  0
   21.7931   19.3946   23.5119 H   0  0  0  0  0  0  0  0  0  0  0  0
   21.4440   18.0736   21.8314 C   0  0  0  0  0  0  0  0  0  0  0  0
   21.9949   18.6794   21.0986 H   0  0  0  0  0  0  0  0  0  0  0  0
   22.1608   17.3493   22.2420 H   0  0  0  0  0  0  0  0  0  0  0  0
   20.3056   17.3083   21.1233 C   0  0  0  0  0  0  0  0  0  0  0  0
   19.6014   18.0005   20.6437 H   0  0  0  0  0  0  0  0  0  0  0  0
   20.7100   16.6477   20.3455 H   0  0  0  0  0  0  0  0  0  0  0  0
   19.7457   16.6896   21.8365 H   0  0  0  0  0  0  0  0  0  0  0  0
  1  2  1  0  0  0  0
  1  3  2  0  0  0  0
  1  4  1  0  0  0  0
  4  5  1  0  0  0  0
  4  6  2  0  0  0  0
  6  7  1  0  0  0  0
  6  8  1  0  0  0  0
  8  9  1  0  0  0  0
  8 10  1  0  0  0  0
  8 11  1  0  0  0  0
 11 12  1  0  0  0  0
 11 13  1  0  0  0  0
 11 14  1  0  0  0  0
 14 15  1  0  0  0  0
 14 16  1  0  0  0  0
 14 17  1  0  0  0  0
M  END
> <VConfSearch Rank>
644

> <Conf_Id>
45

> <Delta U+W>
0.562

> <U+W>
-52.846

> <U>
10.243

> <W>
-63.089

> <W(PB)>
-65.116

> <W(SA)>
2.026

> <Valence>
2.822

> <Coulomb>
6.637

> <VdW>
0.785

> <VdW6>
-5.216

> <VdW12>
6.001

> <Bond>
0.080

> <Angle>
2.678

> <Pdih>
0.064

> <Idih>
0.000

> <Tether>
0.000

$$$$
VeraChem MOL file


 17 16  0  0  0  0  0  0  0  0999 V2000     
   22.7017   20.9203   22.8037 C   0  0  0  0  0  0  0  0  0  0  0  0
   23.4642   20.7541   23.7358 O   0  5  0  0  0  0  0  0  0  0  0  0
   22.6761   21.9432   22.1454 O   0  0  0  0  0  0  0  0  0  0  0  0
   21.7694   19.8091   22.4716 C   0  0  0  0  0  0  0  0  0  0  0  0
   21.8441   18.9235   23.0985 H   0  0  0  0  0  0  0  0  0  0  0  0
   20.8687   19.8567   21.4638 C   0  0  0  0  0  0  0  0  0  0  0  0
   20.7839   20.7399   20.8310 H   0  0  0  0  0  0  0  0  0  0  0  0
   19.9226   18.7230   21.1340 C   0  0  0  0  0  0  0  0  0  0  0  0
   20.4340   17.7587   21.2587 H   0  0  0  0  0  0  0  0  0  0  0  0
   19.6273   18.7858   20.0780 H   0  0  0  0  0  0  0  0  0  0  0  0
   18.6643   18.7639   22.0252 C   0  0  0  0  0  0  0  0  0  0  0  0
   18.9578   18.6969   23.0820 H   0  0  0  0  0  0  0  0  0  0  0  0
   18.1535   19.7284   21.8972 H   0  0  0  0  0  0  0  0  0  0  0  0
   17.6903   17.6169   21.6888 C   0  0  0  0  0  0  0  0  0  0  0  0
   17.3558   17.6787   20.6449 H   0  0  0  0  0  0  0  0  0  0  0  0
   18.1676   16.6395   21.8386 H   0  0  0  0  0  0  0  0  0  0  0  0
   16.8022   17.6624   22.3324 H   0  0  0  0  0  0  0  0  0  0  0  0
  1  2  1  0  0  0  0
  1  3  2  0  0  0  0
  1  4  1  0  0  0  0
  4  5  1  0  0  0  0
  4  6  2  0  0  0  0
  6  7  1  0  0  0  0
  6  8  1  0  0  0  0
  8  9  1  0  0  0  0
  8 10  1  0  0  0  0
  8 11  1  0  0  0  0
 11 12  1  0  0  0  0
 11 13  1  0  0  0  0
 11 14  1  0  0  0  0
 14 15  1  0  0  0  0
 14 16  1  0  0  0  0
 14 17  1  0  0  0  0
M  END
> <VConfSearch Rank>
645

> <Conf_Id>
36

> <Delta U+W>
0.000

> <U+W>
-53.409

> <U>
9.048

> <W>
-62.457

> <W(PB)>
-64.540

> <W(SA)>
2.084

> <Valence>
2.652

> <Coulomb>
5.578

> <VdW>
0.818

> <VdW6>
-4.534

> <VdW12>
5.352

> <Bond>
0.063

> <Angle>
2.579

> <Pdih>
0.010

> <Idih>
0.000

> <Tether>
0.000

$$$$
VeraChem MOL file


 17 16  0  0  0  0  0  0  0  0999 V2000     
   20.7980   20.1433   18.8055 C   0  0  0  0  0  0  0  0  0  0  0  0
   21.8412   20.7631   18.8954 O   0  5  0  0  0  0  0  0  0  0  0  0
   20.1193   20.1362   17.7971 O   0  0  0  0  0  0  0  0  0  0  0  0
   20.3118   19.3506   19.9671 C   0  0  0  0  0  0  0  0  0  0  0  0
   19.3735   18.8205   19.8205 H   0  0  0  0  0  0  0  0  0  0  0  0
   20.9631   19.2690   21.1496 C   0  0  0  0  0  0  0  0  0  0  0  0
   21.9028   19.7978   21.3080 H   0  0  0  0  0  0  0  0  0  0  0  0
   20.4607   18.4620   22.3267 C   0  0  0  0  0  0  0  0  0  0  0  0
   21.3066   18.1831   22.9693 H   0  0  0  0  0  0  0  0  0  0  0  0
   20.0129   17.5228   21.9744 H   0  0  0  0  0  0  0  0  0  0  0  0
   19.4259   19.2550   23.1510 C   0  0  0  0  0  0  0  0  0  0  0  0
   19.8767   20.1929   23.5040 H   0  0  0  0  0  0  0  0  0  0  0  0
   18.5768   19.5313   22.5104 H   0  0  0  0  0  0  0  0  0  0  0  0
   18.9157   18.4426   24.3582 C   0  0  0  0  0  0  0  0  0  0  0  0
   19.7414   18.1800   25.0324 H   0  0  0  0  0  0  0  0  0  0  0  0
   18.1811   19.0226   24.9320 H   0  0  0  0  0  0  0  0  0  0  0  0
   18.4320   17.5132   24.0301 H   0  0  0  0  0  0  0  0  0  0  0  0
  1  2  1  0  0  0  0
  1  3  2  0  0  0  0
  1  4  1  0  0  0  0
  4  5  1  0  0  0  0
  4  6  2  0  0  0  0
  6  7  1  0  0  0  0
  6  8  1  0  0  0  0
  8  9  1  0  0  0  0
  8 10  1  0  0  0  0
  8 11  1  0  0  0  0
 11 12  1  0  0  0  0
 11 13  1  0  0  0  0
 11 14  1  0  0  0  0
 14 15  1  0  0  0  0
 14 16  1  0  0  0  0
 14 17  1  0  0  0  0
M  END
> <VConfSearch Rank>
646

> <Conf_Id>
1

> <Delta U+W>
0.030

> <U+W>
-53.378

> <U>
9.048

> <W>
-62.426

> <W(PB)>
-64.506

> <W(SA)>
2.080

> <Valence>
2.652

> <Coulomb>
5.578

> <VdW>
0.818

> <VdW6>
-4.535

> <VdW12>
5.352

> <Bond>
0.063

> <Angle>
2.579

> <Pdih>
0.010

> <Idih>
0.000

> <Tether>
0.000

$$$$
VeraChem MOL file


 17 16  0  0  0  0  0  0  0  0999 V2000     
   21.6237   17.8745   24.3838 C   0  0  0  0  0  0  0  0  0  0  0  0
   22.4541   17.2332   23.7676 O   0  5  0  0  0  0  0  0  0  0  0  0
   21.7376   18.1392   25.5648 O   0  0  0  0  0  0  0  0  0  0  0  0
   20.4052   18.3641   23.6840 C   0  0  0  0  0  0  0  0  0  0  0  0
   19.7034   18.9297   24.2926 H   0  0  0  0  0  0  0  0  0  0  0  0
   20.1490   18.1451   22.3743 C   0  0  0  0  0  0  0  0  0  0  0  0
   20.8470   17.5827   21.7546 H   0  0  0  0  0  0  0  0  0  0  0  0
   18.9084   18.6500   21.6680 C   0  0  0  0  0  0  0  0  0  0  0  0
   18.0359   18.5289   22.3243 H   0  0  0  0  0  0  0  0  0  0  0  0
   18.7100   18.0367   20.7787 H   0  0  0  0  0  0  0  0  0  0  0  0
   19.0296   20.1335   21.2556 C   0  0  0  0  0  0  0  0  0  0  0  0
   18.0680   20.4722   20.8460 H   0  0  0  0  0  0  0  0  0  0  0  0
   19.2270   20.7499   22.1436 H   0  0  0  0  0  0  0  0  0  0  0  0
   20.1359   20.3667   20.2046 C   0  0  0  0  0  0  0  0  0  0  0  0
   19.9522   19.7694   19.3020 H   0  0  0  0  0  0  0  0  0  0  0  0
   20.1718   21.4235   19.9102 H   0  0  0  0  0  0  0  0  0  0  0  0
   21.1227   20.0943   20.6011 H   0  0  0  0  0  0  0  0  0  0  0  0
  1  2  1  0  0  0  0
  1  3  2  0  0  0  0
  1  4  1  0  0  0  0
  4  5  1  0  0  0  0
  4  6  2  0  0  0  0
  6  7  1  0  0  0  0
  6  8  1  0  0  0  0
  8  9  1  0  0  0  0
  8 10  1  0  0  0  0
  8 11  1  0  0  0  0
 11 12  1  0  0  0  0
 11 13  1  0  0  0  0
 11 14  1  0  0  0  0
 14 15  1  0  0  0  0
 14 16  1  0  0  0  0
 14 17  1  0  0  0  0
M  END
> <VConfSearch Rank>
647

> <Conf_Id>
3

> <Delta U+W>
0.531

> <U+W>
-52.878

> <U>
10.067

> <W>
-62.945

> <W(PB)>
-64.982

> <W(SA)>
2.037

> <Valence>
2.779

> <Coulomb>
6.474

> <VdW>
0.815

> <VdW6>
-5.088

> <VdW12>
5.902

> <Bond>
0.078

> <Angle>
2.651

> <Pdih>
0.050

> <Idih>
0.000

> <Tether>
0.000

$$$$
VeraChem MOL file


 17 16  0  0  0  0  0  0  0  0999 V2000     
   22.6900   19.1235   20.7509 C   0  0  0  0  0  0  0  0  0  0  0  0
   22.9768   19.2448   19.5758 O   0  5  0  0  0  0  0  0  0  0  0  0
   23.4454   18.6308   21.5676 O   0  0  0  0  0  0  0  0  0  0  0  0
   21.3524   19.6091   21.1856 C   0  0  0  0  0  0  0  0  0  0  0  0
   20.7276   20.0382   20.4057 H   0  0  0  0  0  0  0  0  0  0  0  0
   20.9011   19.5357   22.4586 C   0  0  0  0  0  0  0  0  0  0  0  0
   21.5192   19.1039   23.2455 H   0  0  0  0  0  0  0  0  0  0  0  0
   19.5377   20.0285   22.8976 C   0  0  0  0  0  0  0  0  0  0  0  0
   19.1121   20.7078   22.1465 H   0  0  0  0  0  0  0  0  0  0  0  0
   19.6491   20.6201   23.8160 H   0  0  0  0  0  0  0  0  0  0  0  0
   18.5535   18.8688   23.1652 C   0  0  0  0  0  0  0  0  0  0  0  0
   18.9796   18.1873   23.9145 H   0  0  0  0  0  0  0  0  0  0  0  0
   17.6301   19.2754   23.6001 H   0  0  0  0  0  0  0  0  0  0  0  0
   18.2020   18.0807   21.8853 C   0  0  0  0  0  0  0  0  0  0  0  0
   19.0931   17.6043   21.4561 H   0  0  0  0  0  0  0  0  0  0  0  0
   17.4721   17.2912   22.1063 H   0  0  0  0  0  0  0  0  0  0  0  0
   17.7670   18.7416   21.1244 H   0  0  0  0  0  0  0  0  0  0  0  0
  1  2  1  0  0  0  0
  1  3  2  0  0  0  0
  1  4  1  0  0  0  0
  4  5  1  0  0  0  0
  4  6  2  0  0  0  0
  6  7  1  0  0  0  0
  6  8  1  0  0  0  0
  8  9  1  0  0  0  0
  8 10  1  0  0  0  0
  8 11  1  0  0  0  0
 11 12  1  0  0  0  0
 11 13  1  0  0  0  0
 11 14  1  0  0  0  0
 14 15  1  0  0  0  0
 14 16  1  0  0  0  0
 14 17  1  0  0  0  0
M  END
> <VConfSearch Rank>
648

> <Conf_Id>
45

> <Delta U+W>
0.562

> <U+W>
-52.846

> <U>
10.243

> <W>
-63.089

> <W(PB)>
-65.116

> <W(SA)>
2.026

> <Valence>
2.822

> <Coulomb>
6.637

> <VdW>
0.785

> <VdW6>
-5.216

> <VdW12>
6.001

> <Bond>
0.080

> <Angle>
2.678

> <Pdih>
0.064

> <Idih>
0.000

> <Tether>
0.000

$$$$
VeraChem MOL file


 17 16  0  0  0  0  0  0  0  0999 V2000     
   22.3368   18.0197   24.0768 C   0  0  0  0  0  0  0  0  0  0  0  0
   23.5425   18.1718   24.0475 O   0  5  0  0  0  0  0  0  0  0  0  0
   21.7893   17.2219   24.8144 O   0  0  0  0  0  0  0  0  0  0  0  0
   21.5156   18.8585   23.1624 C   0  0  0  0  0  0  0  0  0  0  0  0
   22.0668   19.5508   22.5301 H   0  0  0  0  0  0  0  0  0  0  0  0
   20.1667   18.7944   23.0884 C   0  0  0  0  0  0  0  0  0  0  0  0
   19.6046   18.1027   23.7156 H   0  0  0  0  0  0  0  0  0  0  0  0
   19.3391   19.6495   22.1540 C   0  0  0  0  0  0  0  0  0  0  0  0
   19.7628   20.6615   22.0968 H   0  0  0  0  0  0  0  0  0  0  0  0
   18.3234   19.7584   22.5576 H   0  0  0  0  0  0  0  0  0  0  0  0
   19.2701   19.0336   20.7416 C   0  0  0  0  0  0  0  0  0  0  0  0
   20.2853   18.9279   20.3346 H   0  0  0  0  0  0  0  0  0  0  0  0
   18.8441   18.0223   20.8011 H   0  0  0  0  0  0  0  0  0  0  0  0
   18.4203   19.8945   19.7854 C   0  0  0  0  0  0  0  0  0  0  0  0
   17.3902   19.9899   20.1530 H   0  0  0  0  0  0  0  0  0  0  0  0
   18.8431   20.9027   19.6840 H   0  0  0  0  0  0  0  0  0  0  0  0
   18.3829   19.4408   18.7865 H   0  0  0  0  0  0  0  0  0  0  0  0
  1  2  1  0  0  0  0
  1  3  2  0  0  0  0
  1  4  1  0  0  0  0
  4  5  1  0  0  0  0
  4  6  2  0  0  0  0
  6  7  1  0  0  0  0
  6  8  1  0  0  0  0
  8  9  1  0  0  0  0
  8 10  1  0  0  0  0
  8 11  1  0  0  0  0
 11 12  1  0  0  0  0
 11 13  1  0  0  0  0
 11 14  1  0  0  0  0
 14 15  1  0  0  0  0
 14 16  1  0  0  0  0
 14 17  1  0  0  0  0
M  END
> <VConfSearch Rank>
649

> <Conf_Id>
36

> <Delta U+W>
0.000

> <U+W>
-53.409

> <U>
9.048

> <W>
-62.457

> <W(PB)>
-64.540

> <W(SA)>
2.084

> <Valence>
2.652

> <Coulomb>
5.578

> <VdW>
0.818

> <VdW6>
-4.534

> <VdW12>
5.352

> <Bond>
0.063

> <Angle>
2.579

> <Pdih>
0.010

> <Idih>
0.000

> <Tether>
0.000

$$$$
VeraChem MOL file


 17 16  0  0  0  0  0  0  0  0999 V2000     
   18.7744   22.1198   22.7386 C   0  0  0  0  0  0  0  0  0  0  0  0
   19.3138   22.9321   22.0109 O   0  5  0  0  0  0  0  0  0  0  0  0
   18.0982   22.4389   23.6971 O   0  0  0  0  0  0  0  0  0  0  0  0
   18.9335   20.6663   22.4629 C   0  0  0  0  0  0  0  0  0  0  0  0
   18.4257   19.9943   23.1510 H   0  0  0  0  0  0  0  0  0  0  0  0
   19.6567   20.1691   21.4339 C   0  0  0  0  0  0  0  0  0  0  0  0
   20.1713   20.8333   20.7397 H   0  0  0  0  0  0  0  0  0  0  0  0
   19.8150   18.6892   21.1615 C   0  0  0  0  0  0  0  0  0  0  0  0
   20.0374   18.5328   20.0973 H   0  0  0  0  0  0  0  0  0  0  0  0
   18.8698   18.1670   21.3633 H   0  0  0  0  0  0  0  0  0  0  0  0
   20.9412   18.0772   22.0195 C   0  0  0  0  0  0  0  0  0  0  0  0
   21.8860   18.5997   21.8143 H   0  0  0  0  0  0  0  0  0  0  0  0
   20.7183   18.2293   23.0847 H   0  0  0  0  0  0  0  0  0  0  0  0
   21.1152   16.5707   21.7409 C   0  0  0  0  0  0  0  0  0  0  0  0
   21.3703   16.3926   20.6880 H   0  0  0  0  0  0  0  0  0  0  0  0
   21.9201   16.1533   22.3599 H   0  0  0  0  0  0  0  0  0  0  0  0
   20.1928   16.0201   21.9682 H   0  0  0  0  0  0  0  0  0  0  0  0
  1  2  1  0  0  0  0
  1  3  2  0  0  0  0
  1  4  1  0  0  0  0
  4  5  1  0  0  0  0
  4  6  2  0  0  0  0
  6  7  1  0  0  0  0
  6  8  1  0  0  0  0
  8  9  1  0  0  0  0
  8 10  1  0  0  0  0
  8 11  1  0  0  0  0
 11 12  1  0  0  0  0
 11 13  1  0  0  0  0
 11 14  1  0  0  0  0
 14 15  1  0  0  0  0
 14 16  1  0  0  0  0
 14 17  1  0  0  0  0
M  END
> <VConfSearch Rank>
650

> <Conf_Id>
1

> <Delta U+W>
0.030

> <U+W>
-53.378

> <U>
9.048

> <W>
-62.426

> <W(PB)>
-64.506

> <W(SA)>
2.080

> <Valence>
2.652

> <Coulomb>
5.578

> <VdW>
0.818

> <VdW6>
-4.535

> <VdW12>
5.352

> <Bond>
0.063

> <Angle>
2.579

> <Pdih>
0.010

> <Idih>
0.000

> <Tether>
0.000

$$$$
VeraChem MOL file


 17 16  0  0  0  0  0  0  0  0999 V2000     
   20.9741   20.4379   19.4502 C   0  0  0  0  0  0  0  0  0  0  0  0
   21.7466   19.5937   19.0368 O   0  5  0  0  0  0  0  0  0  0  0  0
   20.5485   21.3399   18.7551 O   0  0  0  0  0  0  0  0  0  0  0  0
   20.5183   20.3874   20.8658 C   0  0  0  0  0  0  0  0  0  0  0  0
   19.8294   21.1717   21.1709 H   0  0  0  0  0  0  0  0  0  0  0  0
   20.9087   19.4415   21.7499 C   0  0  0  0  0  0  0  0  0  0  0  0
   21.5960   18.6492   21.4539 H   0  0  0  0  0  0  0  0  0  0  0  0
   20.4376   19.3943   23.1883 C   0  0  0  0  0  0  0  0  0  0  0  0
   20.4096   20.4122   23.6002 H   0  0  0  0  0  0  0  0  0  0  0  0
   21.1600   18.8365   23.7992 H   0  0  0  0  0  0  0  0  0  0  0  0
   19.0394   18.7531   23.3279 C   0  0  0  0  0  0  0  0  0  0  0  0
   18.7063   18.8415   24.3711 H   0  0  0  0  0  0  0  0  0  0  0  0
   18.3140   19.3098   22.7186 H   0  0  0  0  0  0  0  0  0  0  0  0
   19.0279   17.2646   22.9190 C   0  0  0  0  0  0  0  0  0  0  0  0
   19.7374   16.6856   23.5244 H   0  0  0  0  0  0  0  0  0  0  0  0
   18.0289   16.8329   23.0622 H   0  0  0  0  0  0  0  0  0  0  0  0
   19.2990   17.1420   21.8623 H   0  0  0  0  0  0  0  0  0  0  0  0
  1  2  1  0  0  0  0
  1  3  2  0  0  0  0
  1  4  1  0  0  0  0
  4  5  1  0  0  0  0
  4  6  2  0  0  0  0
  6  7  1  0  0  0  0
  6  8  1  0  0  0  0
  8  9  1  0  0  0  0
  8 10  1  0  0  0  0
  8 11  1  0  0  0  0
 11 12  1  0  0  0  0
 11 13  1  0  0  0  0
 11 14  1  0  0  0  0
 14 15  1  0  0  0  0
 14 16  1  0  0  0  0
 14 17  1  0  0  0  0
M  END
> <VConfSearch Rank>
651

> <Conf_Id>
3

> <Delta U+W>
0.531

> <U+W>
-52.878

> <U>
10.067

> <W>
-62.945

> <W(PB)>
-64.982

> <W(SA)>
2.037

> <Valence>
2.779

> <Coulomb>
6.474

> <VdW>
0.815

> <VdW6>
-5.088

> <VdW12>
5.902

> <Bond>
0.078

> <Angle>
2.651

> <Pdih>
0.050

> <Idih>
0.000

> <Tether>
0.000

$$$$
VeraChem MOL file


 17 16  0  0  0  0  0  0  0  0999 V2000     
   17.1911   19.3119   23.2220 C   0  0  0  0  0  0  0  0  0  0  0  0
   16.1184   19.3351   22.6505 O   0  5  0  0  0  0  0  0  0  0  0  0
   17.3456   19.7310   24.3538 O   0  0  0  0  0  0  0  0  0  0  0  0
   18.3499   18.7383   22.4856 C   0  0  0  0  0  0  0  0  0  0  0  0
   18.1426   18.3822   21.4792 H   0  0  0  0  0  0  0  0  0  0  0  0
   19.5992   18.6514   22.9967 C   0  0  0  0  0  0  0  0  0  0  0  0
   19.8164   19.0091   24.0029 H   0  0  0  0  0  0  0  0  0  0  0  0
   20.7776   18.0694   22.2436 C   0  0  0  0  0  0  0  0  0  0  0  0
   20.4326   17.4677   21.3916 H   0  0  0  0  0  0  0  0  0  0  0  0
   21.3201   17.3801   22.9043 H   0  0  0  0  0  0  0  0  0  0  0  0
   21.7527   19.1596   21.7479 C   0  0  0  0  0  0  0  0  0  0  0  0
   22.0962   19.7637   22.5991 H   0  0  0  0  0  0  0  0  0  0  0  0
   22.6447   18.6773   21.3251 H   0  0  0  0  0  0  0  0  0  0  0  0
   21.1231   20.0779   20.6786 C   0  0  0  0  0  0  0  0  0  0  0  0
   20.2641   20.6278   21.0847 H   0  0  0  0  0  0  0  0  0  0  0  0
   21.8554   20.8138   20.3221 H   0  0  0  0  0  0  0  0  0  0  0  0
   20.7792   19.4954   19.8141 H   0  0  0  0  0  0  0  0  0  0  0  0
  1  2  1  0  0  0  0
  1  3  2  0  0  0  0
  1  4  1  0  0  0  0
  4  5  1  0  0  0  0
  4  6  2  0  0  0  0
  6  7  1  0  0  0  0
  6  8  1  0  0  0  0
  8  9  1  0  0  0  0
  8 10  1  0  0  0  0
  8 11  1  0  0  0  0
 11 12  1  0  0  0  0
 11 13  1  0  0  0  0
 11 14  1  0  0  0  0
 14 15  1  0  0  0  0
 14 16  1  0  0  0  0
 14 17  1  0  0  0  0
M  END
> <VConfSearch Rank>
652

> <Conf_Id>
45

> <Delta U+W>
0.562

> <U+W>
-52.846

> <U>
10.243

> <W>
-63.089

> <W(PB)>
-65.116

> <W(SA)>
2.026

> <Valence>
2.822

> <Coulomb>
6.637

> <VdW>
0.785

> <VdW6>
-5.216

> <VdW12>
6.001

> <Bond>
0.080

> <Angle>
2.678

> <Pdih>
0.064

> <Idih>
0.000

> <Tether>
0.000

$$$$
VeraChem MOL file


 17 16  0  0  0  0  0  0  0  0999 V2000     
   17.4959   18.6505   24.1323 C   0  0  0  0  0  0  0  0  0  0  0  0
   16.3197   18.4197   23.9296 O   0  5  0  0  0  0  0  0  0  0  0  0
   17.9264   18.9793   25.2218 O   0  0  0  0  0  0  0  0  0  0  0  0
   18.4308   18.5169   22.9825 C   0  0  0  0  0  0  0  0  0  0  0  0
   17.9815   18.2200   22.0375 H   0  0  0  0  0  0  0  0  0  0  0  0
   19.7617   18.7433   23.0629 C   0  0  0  0  0  0  0  0  0  0  0  0
   20.2219   19.0435   24.0042 H   0  0  0  0  0  0  0  0  0  0  0  0
   20.7054   18.6073   21.8881 C   0  0  0  0  0  0  0  0  0  0  0  0
   20.4141   17.7470   21.2701 H   0  0  0  0  0  0  0  0  0  0  0  0
   21.7202   18.4002   22.2535 H   0  0  0  0  0  0  0  0  0  0  0  0
   20.7181   19.8866   21.0266 C   0  0  0  0  0  0  0  0  0  0  0  0
   19.7041   20.0930   20.6567 H   0  0  0  0  0  0  0  0  0  0  0  0
   21.0116   20.7452   21.6464 H   0  0  0  0  0  0  0  0  0  0  0  0
   21.6848   19.7596   19.8320 C   0  0  0  0  0  0  0  0  0  0  0  0
   22.7128   19.5844   20.1753 H   0  0  0  0  0  0  0  0  0  0  0  0
   21.3946   18.9262   19.1788 H   0  0  0  0  0  0  0  0  0  0  0  0
   21.6801   20.6784   19.2313 H   0  0  0  0  0  0  0  0  0  0  0  0
  1  2  1  0  0  0  0
  1  3  2  0  0  0  0
  1  4  1  0  0  0  0
  4  5  1  0  0  0  0
  4  6  2  0  0  0  0
  6  7  1  0  0  0  0
  6  8  1  0  0  0  0
  8  9  1  0  0  0  0
  8 10  1  0  0  0  0
  8 11  1  0  0  0  0
 11 12  1  0  0  0  0
 11 13  1  0  0  0  0
 11 14  1  0  0  0  0
 14 15  1  0  0  0  0
 14 16  1  0  0  0  0
 14 17  1  0  0  0  0
M  END
> <VConfSearch Rank>
653

> <Conf_Id>
36

> <Delta U+W>
0.000

> <U+W>
-53.409

> <U>
9.048

> <W>
-62.457

> <W(PB)>
-64.540

> <W(SA)>
2.084

> <Valence>
2.652

> <Coulomb>
5.578

> <VdW>
0.818

> <VdW6>
-4.534

> <VdW12>
5.352

> <Bond>
0.063

> <Angle>
2.579

> <Pdih>
0.010

> <Idih>
0.000

> <Tether>
0.000

$$$$
VeraChem MOL file


 17 16  0  0  0  0  0  0  0  0999 V2000     
   23.1503   17.9573   21.4125 C   0  0  0  0  0  0  0  0  0  0  0  0
   23.6563   17.8228   22.5109 O   0  5  0  0  0  0  0  0  0  0  0  0
   23.7870   17.8865   20.3794 O   0  0  0  0  0  0  0  0  0  0  0  0
   21.6896   18.2192   21.3034 C   0  0  0  0  0  0  0  0  0  0  0  0
   21.3013   18.3292   20.2934 H   0  0  0  0  0  0  0  0  0  0  0  0
   20.8611   18.3238   22.3672 C   0  0  0  0  0  0  0  0  0  0  0  0
   21.2399   18.2175   23.3836 H   0  0  0  0  0  0  0  0  0  0  0  0
   19.3769   18.5923   22.2476 C   0  0  0  0  0  0  0  0  0  0  0  0
   18.8605   18.2065   23.1369 H   0  0  0  0  0  0  0  0  0  0  0  0
   18.9650   18.0483   21.3866 H   0  0  0  0  0  0  0  0  0  0  0  0
   19.0889   20.1000   22.0969 C   0  0  0  0  0  0  0  0  0  0  0  0
   19.4998   20.6416   22.9603 H   0  0  0  0  0  0  0  0  0  0  0  0
   19.6015   20.4867   21.2052 H   0  0  0  0  0  0  0  0  0  0  0  0
   17.5774   20.3829   21.9837 C   0  0  0  0  0  0  0  0  0  0  0  0
   17.0442   20.0342   22.8778 H   0  0  0  0  0  0  0  0  0  0  0  0
   17.3923   21.4597   21.8773 H   0  0  0  0  0  0  0  0  0  0  0  0
   17.1475   19.8772   21.1090 H   0  0  0  0  0  0  0  0  0  0  0  0
  1  2  1  0  0  0  0
  1  3  2  0  0  0  0
  1  4  1  0  0  0  0
  4  5  1  0  0  0  0
  4  6  2  0  0  0  0
  6  7  1  0  0  0  0
  6  8  1  0  0  0  0
  8  9  1  0  0  0  0
  8 10  1  0  0  0  0
  8 11  1  0  0  0  0
 11 12  1  0  0  0  0
 11 13  1  0  0  0  0
 11 14  1  0  0  0  0
 14 15  1  0  0  0  0
 14 16  1  0  0  0  0
 14 17  1  0  0  0  0
M  END
> <VConfSearch Rank>
654

> <Conf_Id>
1

> <Delta U+W>
0.030

> <U+W>
-53.378

> <U>
9.048

> <W>
-62.426

> <W(PB)>
-64.506

> <W(SA)>
2.080

> <Valence>
2.652

> <Coulomb>
5.578

> <VdW>
0.818

> <VdW6>
-4.535

> <VdW12>
5.352

> <Bond>
0.063

> <Angle>
2.579

> <Pdih>
0.010

> <Idih>
0.000

> <Tether>
0.000

$$$$
VeraChem MOL file


 17 16  0  0  0  0  0  0  0  0999 V2000     
   19.1419   16.3664   23.2030 C   0  0  0  0  0  0  0  0  0  0  0  0
   19.9093   16.2696   24.1423 O   0  5  0  0  0  0  0  0  0  0  0  0
   18.1481   15.6757   23.0890 O   0  0  0  0  0  0  0  0  0  0  0  0
   19.4121   17.3640   22.1326 C   0  0  0  0  0  0  0  0  0  0  0  0
   18.6880   17.3983   21.3219 H   0  0  0  0  0  0  0  0  0  0  0  0
   20.4771   18.1975   22.1306 C   0  0  0  0  0  0  0  0  0  0  0  0
   21.2069   18.1740   22.9395 H   0  0  0  0  0  0  0  0  0  0  0  0
   20.7434   19.2131   21.0394 C   0  0  0  0  0  0  0  0  0  0  0  0
   20.5160   18.7701   20.0604 H   0  0  0  0  0  0  0  0  0  0  0  0
   21.8117   19.4676   21.0196 H   0  0  0  0  0  0  0  0  0  0  0  0
   19.9092   20.5006   21.2186 C   0  0  0  0  0  0  0  0  0  0  0  0
   20.0629   21.1523   20.3475 H   0  0  0  0  0  0  0  0  0  0  0  0
   18.8396   20.2492   21.2376 H   0  0  0  0  0  0  0  0  0  0  0  0
   20.2841   21.2747   22.5003 C   0  0  0  0  0  0  0  0  0  0  0  0
   21.3474   21.5477   22.4973 H   0  0  0  0  0  0  0  0  0  0  0  0
   19.6971   22.1990   22.5785 H   0  0  0  0  0  0  0  0  0  0  0  0
   20.0869   20.6741   23.3978 H   0  0  0  0  0  0  0  0  0  0  0  0
  1  2  1  0  0  0  0
  1  3  2  0  0  0  0
  1  4  1  0  0  0  0
  4  5  1  0  0  0  0
  4  6  2  0  0  0  0
  6  7  1  0  0  0  0
  6  8  1  0  0  0  0
  8  9  1  0  0  0  0
  8 10  1  0  0  0  0
  8 11  1  0  0  0  0
 11 12  1  0  0  0  0
 11 13  1  0  0  0  0
 11 14  1  0  0  0  0
 14 15  1  0  0  0  0
 14 16  1  0  0  0  0
 14 17  1  0  0  0  0
M  END
> <VConfSearch Rank>
655

> <Conf_Id>
3

> <Delta U+W>
0.531

> <U+W>
-52.878

> <U>
10.067

> <W>
-62.945

> <W(PB)>
-64.982

> <W(SA)>
2.037

> <Valence>
2.779

> <Coulomb>
6.474

> <VdW>
0.815

> <VdW6>
-5.088

> <VdW12>
5.902

> <Bond>
0.078

> <Angle>
2.651

> <Pdih>
0.050

> <Idih>
0.000

> <Tether>
0.000

$$$$
VeraChem MOL file


 17 16  0  0  0  0  0  0  0  0999 V2000     
   22.8192   19.0344   21.0587 C   0  0  0  0  0  0  0  0  0  0  0  0
   23.3084   19.5853   20.0919 O   0  5  0  0  0  0  0  0  0  0  0  0
   23.3235   18.0633   21.5908 O   0  0  0  0  0  0  0  0  0  0  0  0
   21.5498   19.5924   21.5986 C   0  0  0  0  0  0  0  0  0  0  0  0
   21.1536   20.4601   21.0762 H   0  0  0  0  0  0  0  0  0  0  0  0
   20.8951   19.0802   22.6656 C   0  0  0  0  0  0  0  0  0  0  0  0
   21.2831   18.2087   23.1925 H   0  0  0  0  0  0  0  0  0  0  0  0
   19.6015   19.6488   23.2111 C   0  0  0  0  0  0  0  0  0  0  0  0
   19.4422   20.6708   22.8411 H   0  0  0  0  0  0  0  0  0  0  0  0
   19.6776   19.7282   24.3038 H   0  0  0  0  0  0  0  0  0  0  0  0
   18.3803   18.7724   22.8565 C   0  0  0  0  0  0  0  0  0  0  0  0
   18.5400   17.7492   23.2240 H   0  0  0  0  0  0  0  0  0  0  0  0
   17.4964   19.1600   23.3815 H   0  0  0  0  0  0  0  0  0  0  0  0
   18.0915   18.7416   21.3404 C   0  0  0  0  0  0  0  0  0  0  0  0
   18.9296   18.2994   20.7864 H   0  0  0  0  0  0  0  0  0  0  0  0
   17.1960   18.1427   21.1301 H   0  0  0  0  0  0  0  0  0  0  0  0
   17.9210   19.7544   20.9527 H   0  0  0  0  0  0  0  0  0  0  0  0
  1  2  1  0  0  0  0
  1  3  2  0  0  0  0
  1  4  1  0  0  0  0
  4  5  1  0  0  0  0
  4  6  2  0  0  0  0
  6  7  1  0  0  0  0
  6  8  1  0  0  0  0
  8  9  1  0  0  0  0
  8 10  1  0  0  0  0
  8 11  1  0  0  0  0
 11 12  1  0  0  0  0
 11 13  1  0  0  0  0
 11 14  1  0  0  0  0
 14 15  1  0  0  0  0
 14 16  1  0  0  0  0
 14 17  1  0  0  0  0
M  END
> <VConfSearch Rank>
656

> <Conf_Id>
45

> <Delta U+W>
0.562

> <U+W>
-52.846

> <U>
10.243

> <W>
-63.089

> <W(PB)>
-65.116

> <W(SA)>
2.026

> <Valence>
2.822

> <Coulomb>
6.637

> <VdW>
0.785

> <VdW6>
-5.216

> <VdW12>
6.001

> <Bond>
0.080

> <Angle>
2.678

> <Pdih>
0.064

> <Idih>
0.000

> <Tether>
0.000

$$$$
VeraChem MOL file


 17 16  0  0  0  0  0  0  0  0999 V2000     
   17.0318   19.7554   23.3974 C   0  0  0  0  0  0  0  0  0  0  0  0
   16.6495   20.7697   23.9475 O   0  5  0  0  0  0  0  0  0  0  0  0
   16.4511   18.6909   23.4968 O   0  0  0  0  0  0  0  0  0  0  0  0
   18.2657   19.8449   22.5706 C   0  0  0  0  0  0  0  0  0  0  0  0
   18.7355   20.8247   22.5237 H   0  0  0  0  0  0  0  0  0  0  0  0
   18.8046   18.7982   21.9048 C   0  0  0  0  0  0  0  0  0  0  0  0
   18.3434   17.8117   21.9469 H   0  0  0  0  0  0  0  0  0  0  0  0
   20.0611   18.8973   21.0678 C   0  0  0  0  0  0  0  0  0  0  0  0
   20.0779   19.8536   20.5274 H   0  0  0  0  0  0  0  0  0  0  0  0
   20.0579   18.1073   20.3048 H   0  0  0  0  0  0  0  0  0  0  0  0
   21.3278   18.7690   21.9384 C   0  0  0  0  0  0  0  0  0  0  0  0
   21.3345   19.5614   22.6998 H   0  0  0  0  0  0  0  0  0  0  0  0
   21.3096   17.8109   22.4763 H   0  0  0  0  0  0  0  0  0  0  0  0
   22.6130   18.8595   21.0914 C   0  0  0  0  0  0  0  0  0  0  0  0
   22.6469   18.0580   20.3418 H   0  0  0  0  0  0  0  0  0  0  0  0
   22.6707   19.8223   20.5668 H   0  0  0  0  0  0  0  0  0  0  0  0
   23.5028   18.7663   21.7275 H   0  0  0  0  0  0  0  0  0  0  0  0
  1  2  1  0  0  0  0
  1  3  2  0  0  0  0
  1  4  1  0  0  0  0
  4  5  1  0  0  0  0
  4  6  2  0  0  0  0
  6  7  1  0  0  0  0
  6  8  1  0  0  0  0
  8  9  1  0  0  0  0
  8 10  1  0  0  0  0
  8 11  1  0  0  0  0
 11 12  1  0  0  0  0
 11 13  1  0  0  0  0
 11 14  1  0  0  0  0
 14 15  1  0  0  0  0
 14 16  1  0  0  0  0
 14 17  1  0  0  0  0
M  END
> <VConfSearch Rank>
657

> <Conf_Id>
36

> <Delta U+W>
0.000

> <U+W>
-53.409

> <U>
9.048

> <W>
-62.457

> <W(PB)>
-64.540

> <W(SA)>
2.084

> <Valence>
2.652

> <Coulomb>
5.578

> <VdW>
0.818

> <VdW6>
-4.534

> <VdW12>
5.352

> <Bond>
0.063

> <Angle>
2.579

> <Pdih>
0.010

> <Idih>
0.000

> <Tether>
0.000

$$$$
VeraChem MOL file


 17 16  0  0  0  0  0  0  0  0999 V2000     
   23.0918   20.3832   21.4225 C   0  0  0  0  0  0  0  0  0  0  0  0
   22.9431   21.4321   20.8241 O   0  5  0  0  0  0  0  0  0  0  0  0
   24.1786   19.8622   21.5812 O   0  0  0  0  0  0  0  0  0  0  0  0
   21.9066   19.6895   21.9954 C   0  0  0  0  0  0  0  0  0  0  0  0
   22.1088   18.7572   22.5177 H   0  0  0  0  0  0  0  0  0  0  0  0
   20.6401   20.1530   21.8940 C   0  0  0  0  0  0  0  0  0  0  0  0
   20.4259   21.0848   21.3710 H   0  0  0  0  0  0  0  0  0  0  0  0
   19.4399   19.4403   22.4780 C   0  0  0  0  0  0  0  0  0  0  0  0
   18.6373   20.1660   22.6670 H   0  0  0  0  0  0  0  0  0  0  0  0
   19.7003   19.0019   23.4510 H   0  0  0  0  0  0  0  0  0  0  0  0
   18.9257   18.3371   21.5307 C   0  0  0  0  0  0  0  0  0  0  0  0
   18.6639   18.7784   20.5589 H   0  0  0  0  0  0  0  0  0  0  0  0
   19.7263   17.6079   21.3438 H   0  0  0  0  0  0  0  0  0  0  0  0
   17.6965   17.6120   22.1146 C   0  0  0  0  0  0  0  0  0  0  0  0
   16.8689   18.3138   22.2817 H   0  0  0  0  0  0  0  0  0  0  0  0
   17.3453   16.8314   21.4273 H   0  0  0  0  0  0  0  0  0  0  0  0
   17.9405   17.1349   23.0729 H   0  0  0  0  0  0  0  0  0  0  0  0
  1  2  1  0  0  0  0
  1  3  2  0  0  0  0
  1  4  1  0  0  0  0
  4  5  1  0  0  0  0
  4  6  2  0  0  0  0
  6  7  1  0  0  0  0
  6  8  1  0  0  0  0
  8  9  1  0  0  0  0
  8 10  1  0  0  0  0
  8 11  1  0  0  0  0
 11 12  1  0  0  0  0
 11 13  1  0  0  0  0
 11 14  1  0  0  0  0
 14 15  1  0  0  0  0
 14 16  1  0  0  0  0
 14 17  1  0  0  0  0
M  END
> <VConfSearch Rank>
658

> <Conf_Id>
1

> <Delta U+W>
0.030

> <U+W>
-53.378

> <U>
9.048

> <W>
-62.426

> <W(PB)>
-64.506

> <W(SA)>
2.080

> <Valence>
2.652

> <Coulomb>
5.578

> <VdW>
0.818

> <VdW6>
-4.535

> <VdW12>
5.352

> <Bond>
0.063

> <Angle>
2.579

> <Pdih>
0.010

> <Idih>
0.000

> <Tether>
0.000

$$$$
VeraChem MOL file


 17 16  0  0  0  0  0  0  0  0999 V2000     
   22.3121   20.4171   20.4806 C   0  0  0  0  0  0  0  0  0  0  0  0
   21.9598   21.5810   20.5210 O   0  5  0  0  0  0  0  0  0  0  0  0
   23.4390   20.0790   20.1748 O   0  0  0  0  0  0  0  0  0  0  0  0
   21.3382   19.3421   20.8124 C   0  0  0  0  0  0  0  0  0  0  0  0
   21.7172   18.3242   20.7560 H   0  0  0  0  0  0  0  0  0  0  0  0
   20.0544   19.5723   21.1699 C   0  0  0  0  0  0  0  0  0  0  0  0
   19.6653   20.5882   21.2329 H   0  0  0  0  0  0  0  0  0  0  0  0
   19.0700   18.4731   21.5100 C   0  0  0  0  0  0  0  0  0  0  0  0
   19.2003   17.6335   20.8138 H   0  0  0  0  0  0  0  0  0  0  0  0
   18.0429   18.8343   21.3650 H   0  0  0  0  0  0  0  0  0  0  0  0
   19.2378   17.9611   22.9575 C   0  0  0  0  0  0  0  0  0  0  0  0
   18.5744   17.0992   23.1128 H   0  0  0  0  0  0  0  0  0  0  0  0
   20.2642   17.5978   23.1053 H   0  0  0  0  0  0  0  0  0  0  0  0
   18.9130   19.0435   24.0091 C   0  0  0  0  0  0  0  0  0  0  0  0
   17.8863   19.4128   23.8883 H   0  0  0  0  0  0  0  0  0  0  0  0
   19.0097   18.6368   25.0240 H   0  0  0  0  0  0  0  0  0  0  0  0
   19.5971   19.8978   23.9224 H   0  0  0  0  0  0  0  0  0  0  0  0
  1  2  1  0  0  0  0
  1  3  2  0  0  0  0
  1  4  1  0  0  0  0
  4  5  1  0  0  0  0
  4  6  2  0  0  0  0
  6  7  1  0  0  0  0
  6  8  1  0  0  0  0
  8  9  1  0  0  0  0
  8 10  1  0  0  0  0
  8 11  1  0  0  0  0
 11 12  1  0  0  0  0
 11 13  1  0  0  0  0
 11 14  1  0  0  0  0
 14 15  1  0  0  0  0
 14 16  1  0  0  0  0
 14 17  1  0  0  0  0
M  END
> <VConfSearch Rank>
659

> <Conf_Id>
3

> <Delta U+W>
0.531

> <U+W>
-52.878

> <U>
10.067

> <W>
-62.945

> <W(PB)>
-64.982

> <W(SA)>
2.037

> <Valence>
2.779

> <Coulomb>
6.474

> <VdW>
0.815

> <VdW6>
-5.088

> <VdW12>
5.902

> <Bond>
0.078

> <Angle>
2.651

> <Pdih>
0.050

> <Idih>
0.000

> <Tether>
0.000

$$$$
VeraChem MOL file


 17 16  0  0  0  0  0  0  0  0999 V2000     
   17.7659   17.1947   22.8517 C   0  0  0  0  0  0  0  0  0  0  0  0
   16.6628   17.0482   22.3624 O   0  5  0  0  0  0  0  0  0  0  0  0
   18.0408   16.8336   23.9807 O   0  0  0  0  0  0  0  0  0  0  0  0
   18.8094   17.8434   22.0125 C   0  0  0  0  0  0  0  0  0  0  0  0
   18.4972   18.1414   21.0143 H   0  0  0  0  0  0  0  0  0  0  0  0
   20.0763   18.0715   22.4280 C   0  0  0  0  0  0  0  0  0  0  0  0
   20.3965   17.7795   23.4279 H   0  0  0  0  0  0  0  0  0  0  0  0
   21.1357   18.7347   21.5723 C   0  0  0  0  0  0  0  0  0  0  0  0
   20.8434   18.7179   20.5135 H   0  0  0  0  0  0  0  0  0  0  0  0
   22.0662   18.1556   21.6413 H   0  0  0  0  0  0  0  0  0  0  0  0
   21.4171   20.1888   22.0100 C   0  0  0  0  0  0  0  0  0  0  0  0
   21.7069   20.2067   23.0698 H   0  0  0  0  0  0  0  0  0  0  0  0
   22.2759   20.5739   21.4432 H   0  0  0  0  0  0  0  0  0  0  0  0
   20.2075   21.1212   21.7855 C   0  0  0  0  0  0  0  0  0  0  0  0
   19.3460   20.8045   22.3877 H   0  0  0  0  0  0  0  0  0  0  0  0
   20.4563   22.1516   22.0705 H   0  0  0  0  0  0  0  0  0  0  0  0
   19.9051   21.1247   20.7303 H   0  0  0  0  0  0  0  0  0  0  0  0
  1  2  1  0  0  0  0
  1  3  2  0  0  0  0
  1  4  1  0  0  0  0
  4  5  1  0  0  0  0
  4  6  2  0  0  0  0
  6  7  1  0  0  0  0
  6  8  1  0  0  0  0
  8  9  1  0  0  0  0
  8 10  1  0  0  0  0
  8 11  1  0  0  0  0
 11 12  1  0  0  0  0
 11 13  1  0  0  0  0
 11 14  1  0  0  0  0
 14 15  1  0  0  0  0
 14 16  1  0  0  0  0
 14 17  1  0  0  0  0
M  END
> <VConfSearch Rank>
660

> <Conf_Id>
45

> <Delta U+W>
0.562

> <U+W>
-52.846

> <U>
10.243

> <W>
-63.089

> <W(PB)>
-65.116

> <W(SA)>
2.026

> <Valence>
2.822

> <Coulomb>
6.637

> <VdW>
0.785

> <VdW6>
-5.216

> <VdW12>
6.001

> <Bond>
0.080

> <Angle>
2.678

> <Pdih>
0.064

> <Idih>
0.000

> <Tether>
0.000

$$$$
VeraChem MOL file


 17 16  0  0  0  0  0  0  0  0999 V2000     
   22.5925   17.1909   22.8668 C   0  0  0  0  0  0  0  0  0  0  0  0
   23.1558   16.3024   22.2577 O   0  5  0  0  0  0  0  0  0  0  0  0
   22.7528   17.3796   24.0581 O   0  0  0  0  0  0  0  0  0  0  0  0
   21.6727   18.0741   22.1001 C   0  0  0  0  0  0  0  0  0  0  0  0
   21.5747   17.8514   21.0400 H   0  0  0  0  0  0  0  0  0  0  0  0
   20.9807   19.0989   22.6479 C   0  0  0  0  0  0  0  0  0  0  0  0
   21.0697   19.3294   23.7093 H   0  0  0  0  0  0  0  0  0  0  0  0
   20.0456   19.9912   21.8613 C   0  0  0  0  0  0  0  0  0  0  0  0
   20.4649   20.1897   20.8656 H   0  0  0  0  0  0  0  0  0  0  0  0
   19.9572   20.9643   22.3628 H   0  0  0  0  0  0  0  0  0  0  0  0
   18.6478   19.3545   21.7200 C   0  0  0  0  0  0  0  0  0  0  0  0
   18.7340   18.3825   21.2146 H   0  0  0  0  0  0  0  0  0  0  0  0
   18.2297   19.1587   22.7172 H   0  0  0  0  0  0  0  0  0  0  0  0
   17.6857   20.2621   20.9275 C   0  0  0  0  0  0  0  0  0  0  0  0
   17.5566   21.2304   21.4286 H   0  0  0  0  0  0  0  0  0  0  0  0
   18.0661   20.4481   19.9145 H   0  0  0  0  0  0  0  0  0  0  0  0
   16.6974   19.7927   20.8374 H   0  0  0  0  0  0  0  0  0  0  0  0
  1  2  1  0  0  0  0
  1  3  2  0  0  0  0
  1  4  1  0  0  0  0
  4  5  1  0  0  0  0
  4  6  2  0  0  0  0
  6  7  1  0  0  0  0
  6  8  1  0  0  0  0
  8  9  1  0  0  0  0
  8 10  1  0  0  0  0
  8 11  1  0  0  0  0
 11 12  1  0  0  0  0
 11 13  1  0  0  0  0
 11 14  1  0  0  0  0
 14 15  1  0  0  0  0
 14 16  1  0  0  0  0
 14 17  1  0  0  0  0
M  END
> <VConfSearch Rank>
661

> <Conf_Id>
36

> <Delta U+W>
0.000

> <U+W>
-53.409

> <U>
9.048

> <W>
-62.457

> <W(PB)>
-64.540

> <W(SA)>
2.084

> <Valence>
2.652

> <Coulomb>
5.578

> <VdW>
0.818

> <VdW6>
-4.534

> <VdW12>
5.352

> <Bond>
0.063

> <Angle>
2.579

> <Pdih>
0.010

> <Idih>
0.000

> <Tether>
0.000

$$$$
VeraChem MOL file


 17 16  0  0  0  0  0  0  0  0999 V2000     
   19.7209   21.5648   24.1903 C   0  0  0  0  0  0  0  0  0  0  0  0
   19.2816   21.0584   25.2058 O   0  5  0  0  0  0  0  0  0  0  0  0
   19.8035   22.7676   24.0350 O   0  0  0  0  0  0  0  0  0  0  0  0
   20.1847   20.6942   23.0763 C   0  0  0  0  0  0  0  0  0  0  0  0
   20.5658   21.2100   22.1979 H   0  0  0  0  0  0  0  0  0  0  0  0
   20.1501   19.3426   23.1114 C   0  0  0  0  0  0  0  0  0  0  0  0
   19.7683   18.8156   23.9855 H   0  0  0  0  0  0  0  0  0  0  0  0
   20.6221   18.4645   21.9732 C   0  0  0  0  0  0  0  0  0  0  0  0
   20.9137   17.4805   22.3644 H   0  0  0  0  0  0  0  0  0  0  0  0
   21.5212   18.8969   21.5132 H   0  0  0  0  0  0  0  0  0  0  0  0
   19.5233   18.2903   20.9049 C   0  0  0  0  0  0  0  0  0  0  0  0
   18.6260   17.8557   21.3669 H   0  0  0  0  0  0  0  0  0  0  0  0
   19.2333   19.2737   20.5095 H   0  0  0  0  0  0  0  0  0  0  0  0
   19.9935   17.3889   19.7456 C   0  0  0  0  0  0  0  0  0  0  0  0
   20.2599   16.3878   20.1094 H   0  0  0  0  0  0  0  0  0  0  0  0
   19.1991   17.2767   18.9963 H   0  0  0  0  0  0  0  0  0  0  0  0
   20.8723   17.8175   19.2463 H   0  0  0  0  0  0  0  0  0  0  0  0
  1  2  1  0  0  0  0
  1  3  2  0  0  0  0
  1  4  1  0  0  0  0
  4  5  1  0  0  0  0
  4  6  2  0  0  0  0
  6  7  1  0  0  0  0
  6  8  1  0  0  0  0
  8  9  1  0  0  0  0
  8 10  1  0  0  0  0
  8 11  1  0  0  0  0
 11 12  1  0  0  0  0
 11 13  1  0  0  0  0
 11 14  1  0  0  0  0
 14 15  1  0  0  0  0
 14 16  1  0  0  0  0
 14 17  1  0  0  0  0
M  END
> <VConfSearch Rank>
662

> <Conf_Id>
1

> <Delta U+W>
0.030

> <U+W>
-53.378

> <U>
9.048

> <W>
-62.426

> <W(PB)>
-64.506

> <W(SA)>
2.080

> <Valence>
2.652

> <Coulomb>
5.578

> <VdW>
0.818

> <VdW6>
-4.535

> <VdW12>
5.352

> <Bond>
0.063

> <Angle>
2.579

> <Pdih>
0.010

> <Idih>
0.000

> <Tether>
0.000

$$$$
VeraChem MOL file


 17 16  0  0  0  0  0  0  0  0999 V2000     
   21.3610   18.0683   19.4710 C   0  0  0  0  0  0  0  0  0  0  0  0
   21.4455   19.1069   18.8428 O   0  5  0  0  0  0  0  0  0  0  0  0
   21.9837   17.0666   19.1767 O   0  0  0  0  0  0  0  0  0  0  0  0
   20.4600   17.9950   20.6529 C   0  0  0  0  0  0  0  0  0  0  0  0
   20.4303   17.0380   21.1686 H   0  0  0  0  0  0  0  0  0  0  0  0
   19.7102   19.0304   21.0943 C   0  0  0  0  0  0  0  0  0  0  0  0
   19.7348   19.9946   20.5871 H   0  0  0  0  0  0  0  0  0  0  0  0
   18.7982   18.9495   22.3004 C   0  0  0  0  0  0  0  0  0  0  0  0
   18.2778   17.9822   22.3045 H   0  0  0  0  0  0  0  0  0  0  0  0
   18.0164   19.7175   22.2290 H   0  0  0  0  0  0  0  0  0  0  0  0
   19.5662   19.1167   23.6300 C   0  0  0  0  0  0  0  0  0  0  0  0
   18.8762   18.9444   24.4675 H   0  0  0  0  0  0  0  0  0  0  0  0
   20.3486   18.3487   23.7050 H   0  0  0  0  0  0  0  0  0  0  0  0
   20.1974   20.5177   23.7764 C   0  0  0  0  0  0  0  0  0  0  0  0
   19.4312   21.3017   23.7171 H   0  0  0  0  0  0  0  0  0  0  0  0
   20.7054   20.6129   24.7447 H   0  0  0  0  0  0  0  0  0  0  0  0
   20.9387   20.7025   22.9880 H   0  0  0  0  0  0  0  0  0  0  0  0
  1  2  1  0  0  0  0
  1  3  2  0  0  0  0
  1  4  1  0  0  0  0
  4  5  1  0  0  0  0
  4  6  2  0  0  0  0
  6  7  1  0  0  0  0
  6  8  1  0  0  0  0
  8  9  1  0  0  0  0
  8 10  1  0  0  0  0
  8 11  1  0  0  0  0
 11 12  1  0  0  0  0
 11 13  1  0  0  0  0
 11 14  1  0  0  0  0
 14 15  1  0  0  0  0
 14 16  1  0  0  0  0
 14 17  1  0  0  0  0
M  END
> <VConfSearch Rank>
663

> <Conf_Id>
3

> <Delta U+W>
0.531

> <U+W>
-52.878

> <U>
10.067

> <W>
-62.945

> <W(PB)>
-64.982

> <W(SA)>
2.037

> <Valence>
2.779

> <Coulomb>
6.474

> <VdW>
0.815

> <VdW6>
-5.088

> <VdW12>
5.902

> <Bond>
0.078

> <Angle>
2.651

> <Pdih>
0.050

> <Idih>
0.000

> <Tether>
0.000

$$$$
VeraChem MOL file


 17 16  0  0  0  0  0  0  0  0999 V2000     
   17.0035   18.7247   22.4457 C   0  0  0  0  0  0  0  0  0  0  0  0
   16.2842   19.0879   23.3559 O   0  5  0  0  0  0  0  0  0  0  0  0
   16.7009   17.8261   21.6832 O   0  0  0  0  0  0  0  0  0  0  0  0
   18.3042   19.4271   22.2753 C   0  0  0  0  0  0  0  0  0  0  0  0
   18.5119   20.2197   22.9904 H   0  0  0  0  0  0  0  0  0  0  0  0
   19.2020   19.1267   21.3093 C   0  0  0  0  0  0  0  0  0  0  0  0
   19.0034   18.3316   20.5910 H   0  0  0  0  0  0  0  0  0  0  0  0
   20.5265   19.8417   21.1401 C   0  0  0  0  0  0  0  0  0  0  0  0
   20.5209   20.7984   21.6800 H   0  0  0  0  0  0  0  0  0  0  0  0
   20.6665   20.0905   20.0796 H   0  0  0  0  0  0  0  0  0  0  0  0
   21.7202   18.9847   21.6153 C   0  0  0  0  0  0  0  0  0  0  0  0
   21.7250   18.0264   21.0776 H   0  0  0  0  0  0  0  0  0  0  0  0
   22.6561   19.4967   21.3525 H   0  0  0  0  0  0  0  0  0  0  0  0
   21.6980   18.7274   23.1371 C   0  0  0  0  0  0  0  0  0  0  0  0
   20.8055   18.1592   23.4299 H   0  0  0  0  0  0  0  0  0  0  0  0
   22.5797   18.1500   23.4439 H   0  0  0  0  0  0  0  0  0  0  0  0
   21.7005   19.6727   23.6952 H   0  0  0  0  0  0  0  0  0  0  0  0
  1  2  1  0  0  0  0
  1  3  2  0  0  0  0
  1  4  1  0  0  0  0
  4  5  1  0  0  0  0
  4  6  2  0  0  0  0
  6  7  1  0  0  0  0
  6  8  1  0  0  0  0
  8  9  1  0  0  0  0
  8 10  1  0  0  0  0
  8 11  1  0  0  0  0
 11 12  1  0  0  0  0
 11 13  1  0  0  0  0
 11 14  1  0  0  0  0
 14 15  1  0  0  0  0
 14 16  1  0  0  0  0
 14 17  1  0  0  0  0
M  END
> <VConfSearch Rank>
664

> <Conf_Id>
45

> <Delta U+W>
0.562

> <U+W>
-52.846

> <U>
10.243

> <W>
-63.089

> <W(PB)>
-65.116

> <W(SA)>
2.026

> <Valence>
2.822

> <Coulomb>
6.637

> <VdW>
0.785

> <VdW6>
-5.216

> <VdW12>
6.001

> <Bond>
0.080

> <Angle>
2.678

> <Pdih>
0.064

> <Idih>
0.000

> <Tether>
0.000

$$$$
VeraChem MOL file


 17 16  0  0  0  0  0  0  0  0999 V2000     
   22.4620   17.2927   20.5162 C   0  0  0  0  0  0  0  0  0  0  0  0
   22.8296   17.2546   19.3582 O   0  5  0  0  0  0  0  0  0  0  0  0
   22.8070   16.4727   21.3462 O   0  0  0  0  0  0  0  0  0  0  0  0
   21.5517   18.4011   20.9124 C   0  0  0  0  0  0  0  0  0  0  0  0
   21.2823   19.0992   20.1231 H   0  0  0  0  0  0  0  0  0  0  0  0
   21.0646   18.5658   22.1633 C   0  0  0  0  0  0  0  0  0  0  0  0
   21.3261   17.8710   22.9611 H   0  0  0  0  0  0  0  0  0  0  0  0
   20.1375   19.6947   22.5575 C   0  0  0  0  0  0  0  0  0  0  0  0
   20.4341   20.6204   22.0457 H   0  0  0  0  0  0  0  0  0  0  0  0
   20.2317   19.8890   23.6344 H   0  0  0  0  0  0  0  0  0  0  0  0
   18.6700   19.3605   22.2198 C   0  0  0  0  0  0  0  0  0  0  0  0
   18.5732   19.1699   21.1419 H   0  0  0  0  0  0  0  0  0  0  0  0
   18.3751   18.4354   22.7344 H   0  0  0  0  0  0  0  0  0  0  0  0
   17.7173   20.5024   22.6271 C   0  0  0  0  0  0  0  0  0  0  0  0
   17.7709   20.6925   23.7071 H   0  0  0  0  0  0  0  0  0  0  0  0
   17.9719   21.4325   22.1022 H   0  0  0  0  0  0  0  0  0  0  0  0
   16.6789   20.2467   22.3792 H   0  0  0  0  0  0  0  0  0  0  0  0
  1  2  1  0  0  0  0
  1  3  2  0  0  0  0
  1  4  1  0  0  0  0
  4  5  1  0  0  0  0
  4  6  2  0  0  0  0
  6  7  1  0  0  0  0
  6  8  1  0  0  0  0
  8  9  1  0  0  0  0
  8 10  1  0  0  0  0
  8 11  1  0  0  0  0
 11 12  1  0  0  0  0
 11 13  1  0  0  0  0
 11 14  1  0  0  0  0
 14 15  1  0  0  0  0
 14 16  1  0  0  0  0
 14 17  1  0  0  0  0
M  END
> <VConfSearch Rank>
665

> <Conf_Id>
36

> <Delta U+W>
0.000

> <U+W>
-53.409

> <U>
9.048

> <W>
-62.457

> <W(PB)>
-64.540

> <W(SA)>
2.084

> <Valence>
2.652

> <Coulomb>
5.578

> <VdW>
0.818

> <VdW6>
-4.534

> <VdW12>
5.352

> <Bond>
0.063

> <Angle>
2.579

> <Pdih>
0.010

> <Idih>
0.000

> <Tether>
0.000

$$$$
VeraChem MOL file


 17 16  0  0  0  0  0  0  0  0999 V2000     
   19.9134   19.7580   18.6083 C   0  0  0  0  0  0  0  0  0  0  0  0
   20.9737   19.3863   18.1414 O   0  5  0  0  0  0  0  0  0  0  0  0
   19.1153   20.4280   17.9823 O   0  0  0  0  0  0  0  0  0  0  0  0
   19.5549   19.3877   20.0041 C   0  0  0  0  0  0  0  0  0  0  0  0
   18.5936   19.7517   20.3597 H   0  0  0  0  0  0  0  0  0  0  0  0
   20.3460   18.6488   20.8148 C   0  0  0  0  0  0  0  0  0  0  0  0
   21.3120   18.2809   20.4695 H   0  0  0  0  0  0  0  0  0  0  0  0
   19.9747   18.2781   22.2339 C   0  0  0  0  0  0  0  0  0  0  0  0
   20.5057   17.3620   22.5257 H   0  0  0  0  0  0  0  0  0  0  0  0
   18.9018   18.0500   22.2940 H   0  0  0  0  0  0  0  0  0  0  0  0
   20.3218   19.4122   23.2201 C   0  0  0  0  0  0  0  0  0  0  0  0
   21.3957   19.6371   23.1597 H   0  0  0  0  0  0  0  0  0  0  0  0
   19.7881   20.3285   22.9319 H   0  0  0  0  0  0  0  0  0  0  0  0
   19.9548   19.0384   24.6703 C   0  0  0  0  0  0  0  0  0  0  0  0
   20.4997   18.1423   24.9950 H   0  0  0  0  0  0  0  0  0  0  0  0
   20.2089   19.8567   25.3567 H   0  0  0  0  0  0  0  0  0  0  0  0
   18.8793   18.8389   24.7644 H   0  0  0  0  0  0  0  0  0  0  0  0
  1  2  1  0  0  0  0
  1  3  2  0  0  0  0
  1  4  1  0  0  0  0
  4  5  1  0  0  0  0
  4  6  2  0  0  0  0
  6  7  1  0  0  0  0
  6  8  1  0  0  0  0
  8  9  1  0  0  0  0
  8 10  1  0  0  0  0
  8 11  1  0  0  0  0
 11 12  1  0  0  0  0
 11 13  1  0  0  0  0
 11 14  1  0  0  0  0
 14 15  1  0  0  0  0
 14 16  1  0  0  0  0
 14 17  1  0  0  0  0
M  END
> <VConfSearch Rank>
666

> <Conf_Id>
1

> <Delta U+W>
0.030

> <U+W>
-53.378

> <U>
9.048

> <W>
-62.426

> <W(PB)>
-64.506

> <W(SA)>
2.080

> <Valence>
2.652

> <Coulomb>
5.578

> <VdW>
0.818

> <VdW6>
-4.535

> <VdW12>
5.352

> <Bond>
0.063

> <Angle>
2.579

> <Pdih>
0.010

> <Idih>
0.000

> <Tether>
0.000

$$$$
VeraChem MOL file


 17 16  0  0  0  0  0  0  0  0999 V2000     
   18.5112   21.4012   20.6782 C   0  0  0  0  0  0  0  0  0  0  0  0
   19.4260   21.9307   20.0754 O   0  5  0  0  0  0  0  0  0  0  0  0
   17.3419   21.6271   20.4342 O   0  0  0  0  0  0  0  0  0  0  0  0
   18.8114   20.4339   21.7684 C   0  0  0  0  0  0  0  0  0  0  0  0
   17.9488   19.9979   22.2669 H   0  0  0  0  0  0  0  0  0  0  0  0
   20.0633   20.0879   22.1453 C   0  0  0  0  0  0  0  0  0  0  0  0
   20.9346   20.5161   21.6504 H   0  0  0  0  0  0  0  0  0  0  0  0
   20.3610   19.0996   23.2533 C   0  0  0  0  0  0  0  0  0  0  0  0
   19.6678   19.2638   24.0894 H   0  0  0  0  0  0  0  0  0  0  0  0
   21.3688   19.2785   23.6517 H   0  0  0  0  0  0  0  0  0  0  0  0
   20.2454   17.6339   22.7802 C   0  0  0  0  0  0  0  0  0  0  0  0
   20.3669   16.9668   23.6447 H   0  0  0  0  0  0  0  0  0  0  0  0
   19.2376   17.4515   22.3822 H   0  0  0  0  0  0  0  0  0  0  0  0
   21.2995   17.2724   21.7120 C   0  0  0  0  0  0  0  0  0  0  0  0
   22.3162   17.4351   22.0928 H   0  0  0  0  0  0  0  0  0  0  0  0
   21.2104   16.2170   21.4237 H   0  0  0  0  0  0  0  0  0  0  0  0
   21.1709   17.8803   20.8070 H   0  0  0  0  0  0  0  0  0  0  0  0
  1  2  1  0  0  0  0
  1  3  2  0  0  0  0
  1  4  1  0  0  0  0
  4  5  1  0  0  0  0
  4  6  2  0  0  0  0
  6  7  1  0  0  0  0
  6  8  1  0  0  0  0
  8  9  1  0  0  0  0
  8 10  1  0  0  0  0
  8 11  1  0  0  0  0
 11 12  1  0  0  0  0
 11 13  1  0  0  0  0
 11 14  1  0  0  0  0
 14 15  1  0  0  0  0
 14 16  1  0  0  0  0
 14 17  1  0  0  0  0
M  END
> <VConfSearch Rank>
667

> <Conf_Id>
3

> <Delta U+W>
0.531

> <U+W>
-52.878

> <U>
10.067

> <W>
-62.945

> <W(PB)>
-64.982

> <W(SA)>
2.037

> <Valence>
2.779

> <Coulomb>
6.474

> <VdW>
0.815

> <VdW6>
-5.088

> <VdW12>
5.902

> <Bond>
0.078

> <Angle>
2.651

> <Pdih>
0.050

> <Idih>
0.000

> <Tether>
0.000

$$$$
VeraChem MOL file


 17 16  0  0  0  0  0  0  0  0999 V2000     
   20.9120   17.7332   19.5513 C   0  0  0  0  0  0  0  0  0  0  0  0
   21.0666   16.5493   19.3229 O   0  5  0  0  0  0  0  0  0  0  0  0
   21.4528   18.6074   18.9003 O   0  0  0  0  0  0  0  0  0  0  0  0
   20.0150   18.1043   20.6790 C   0  0  0  0  0  0  0  0  0  0  0  0
   19.5642   17.2747   21.2187 H   0  0  0  0  0  0  0  0  0  0  0  0
   19.7541   19.3797   21.0461 C   0  0  0  0  0  0  0  0  0  0  0  0
   20.2044   20.2168   20.5131 H   0  0  0  0  0  0  0  0  0  0  0  0
   18.8426   19.7543   22.1964 C   0  0  0  0  0  0  0  0  0  0  0  0
   18.2044   18.9051   22.4760 H   0  0  0  0  0  0  0  0  0  0  0  0
   18.1627   20.5525   21.8697 H   0  0  0  0  0  0  0  0  0  0  0  0
   19.6293   20.2415   23.4329 C   0  0  0  0  0  0  0  0  0  0  0  0
   20.2700   21.0894   23.1534 H   0  0  0  0  0  0  0  0  0  0  0  0
   18.9204   20.6179   24.1833 H   0  0  0  0  0  0  0  0  0  0  0  0
   20.4885   19.1270   24.0672 C   0  0  0  0  0  0  0  0  0  0  0  0
   21.2537   18.7692   23.3661 H   0  0  0  0  0  0  0  0  0  0  0  0
   21.0014   19.4981   24.9640 H   0  0  0  0  0  0  0  0  0  0  0  0
   19.8667   18.2715   24.3616 H   0  0  0  0  0  0  0  0  0  0  0  0
  1  2  1  0  0  0  0
  1  3  2  0  0  0  0
  1  4  1  0  0  0  0
  4  5  1  0  0  0  0
  4  6  2  0  0  0  0
  6  7  1  0  0  0  0
  6  8  1  0  0  0  0
  8  9  1  0  0  0  0
  8 10  1  0  0  0  0
  8 11  1  0  0  0  0
 11 12  1  0  0  0  0
 11 13  1  0  0  0  0
 11 14  1  0  0  0  0
 14 15  1  0  0  0  0
 14 16  1  0  0  0  0
 14 17  1  0  0  0  0
M  END
> <VConfSearch Rank>
668

> <Conf_Id>
45

> <Delta U+W>
0.562

> <U+W>
-52.846

> <U>
10.243

> <W>
-63.089

> <W(PB)>
-65.116

> <W(SA)>
2.026

> <Valence>
2.822

> <Coulomb>
6.637

> <VdW>
0.785

> <VdW6>
-5.216

> <VdW12>
6.001

> <Bond>
0.080

> <Angle>
2.678

> <Pdih>
0.064

> <Idih>
0.000

> <Tether>
0.000

$$$$
VeraChem MOL file


 17 16  0  0  0  0  0  0  0  0999 V2000     
   21.8668   18.9024   24.7101 C   0  0  0  0  0  0  0  0  0  0  0  0
   21.5146   18.7321   25.8610 O   0  5  0  0  0  0  0  0  0  0  0  0
   22.9915   19.2557   24.4088 O   0  0  0  0  0  0  0  0  0  0  0  0
   20.8612   18.6605   23.6404 C   0  0  0  0  0  0  0  0  0  0  0  0
   19.8758   18.3469   23.9774 H   0  0  0  0  0  0  0  0  0  0  0  0
   21.1137   18.8116   22.3203 C   0  0  0  0  0  0  0  0  0  0  0  0
   22.0968   19.1277   21.9718 H   0  0  0  0  0  0  0  0  0  0  0  0
   20.0846   18.5656   21.2388 C   0  0  0  0  0  0  0  0  0  0  0  0
   19.4660   17.6961   21.4998 H   0  0  0  0  0  0  0  0  0  0  0  0
   20.5927   18.3163   20.2975 H   0  0  0  0  0  0  0  0  0  0  0  0
   19.1847   19.8004   21.0282 C   0  0  0  0  0  0  0  0  0  0  0  0
   18.6723   20.0486   21.9681 H   0  0  0  0  0  0  0  0  0  0  0  0
   19.8055   20.6682   20.7653 H   0  0  0  0  0  0  0  0  0  0  0  0
   18.1389   19.5610   19.9207 C   0  0  0  0  0  0  0  0  0  0  0  0
   18.6257   19.3418   18.9613 H   0  0  0  0  0  0  0  0  0  0  0  0
   17.4845   18.7167   20.1742 H   0  0  0  0  0  0  0  0  0  0  0  0
   17.5085   20.4496   19.7855 H   0  0  0  0  0  0  0  0  0  0  0  0
  1  2  1  0  0  0  0
  1  3  2  0  0  0  0
  1  4  1  0  0  0  0
  4  5  1  0  0  0  0
  4  6  2  0  0  0  0
  6  7  1  0  0  0  0
  6  8  1  0  0  0  0
  8  9  1  0  0  0  0
  8 10  1  0  0  0  0
  8 11  1  0  0  0  0
 11 12  1  0  0  0  0
 11 13  1  0  0  0  0
 11 14  1  0  0  0  0
 14 15  1  0  0  0  0
 14 16  1  0  0  0  0
 14 17  1  0  0  0  0
M  END
> <VConfSearch Rank>
669

> <Conf_Id>
36

> <Delta U+W>
0.000

> <U+W>
-53.409

> <U>
9.048

> <W>
-62.457

> <W(PB)>
-64.540

> <W(SA)>
2.084

> <Valence>
2.652

> <Coulomb>
5.578

> <VdW>
0.818

> <VdW6>
-4.534

> <VdW12>
5.352

> <Bond>
0.063

> <Angle>
2.579

> <Pdih>
0.010

> <Idih>
0.000

> <Tether>
0.000

$$$$
VeraChem MOL file


 17 16  0  0  0  0  0  0  0  0999 V2000     
   22.4275   18.2764   24.1240 C   0  0  0  0  0  0  0  0  0  0  0  0
   22.5684   17.0694   24.0621 O   0  5  0  0  0  0  0  0  0  0  0  0
   22.9369   18.9566   24.9932 O   0  0  0  0  0  0  0  0  0  0  0  0
   21.6010   18.9732   23.1014 C   0  0  0  0  0  0  0  0  0  0  0  0
   21.5159   20.0515   23.2144 H   0  0  0  0  0  0  0  0  0  0  0  0
   20.9759   18.3434   22.0808 C   0  0  0  0  0  0  0  0  0  0  0  0
   21.0527   17.2631   21.9594 H   0  0  0  0  0  0  0  0  0  0  0  0
   20.1356   19.0594   21.0461 C   0  0  0  0  0  0  0  0  0  0  0  0
   20.1085   18.4679   20.1210 H   0  0  0  0  0  0  0  0  0  0  0  0
   20.5975   20.0221   20.7880 H   0  0  0  0  0  0  0  0  0  0  0  0
   18.6974   19.2913   21.5527 C   0  0  0  0  0  0  0  0  0  0  0  0
   18.2368   18.3268   21.8082 H   0  0  0  0  0  0  0  0  0  0  0  0
   18.7225   19.8865   22.4761 H   0  0  0  0  0  0  0  0  0  0  0  0
   17.8318   20.0124   20.5000 C   0  0  0  0  0  0  0  0  0  0  0  0
   17.7638   19.4228   19.5764 H   0  0  0  0  0  0  0  0  0  0  0  0
   16.8130   20.1684   20.8781 H   0  0  0  0  0  0  0  0  0  0  0  0
   18.2544   20.9944   20.2498 H   0  0  0  0  0  0  0  0  0  0  0  0
  1  2  1  0  0  0  0
  1  3  2  0  0  0  0
  1  4  1  0  0  0  0
  4  5  1  0  0  0  0
  4  6  2  0  0  0  0
  6  7  1  0  0  0  0
  6  8  1  0  0  0  0
  8  9  1  0  0  0  0
  8 10  1  0  0  0  0
  8 11  1  0  0  0  0
 11 12  1  0  0  0  0
 11 13  1  0  0  0  0
 11 14  1  0  0  0  0
 14 15  1  0  0  0  0
 14 16  1  0  0  0  0
 14 17  1  0  0  0  0
M  END
> <VConfSearch Rank>
670

> <Conf_Id>
1

> <Delta U+W>
0.030

> <U+W>
-53.378

> <U>
9.048

> <W>
-62.426

> <W(PB)>
-64.506

> <W(SA)>
2.080

> <Valence>
2.652

> <Coulomb>
5.578

> <VdW>
0.818

> <VdW6>
-4.535

> <VdW12>
5.352

> <Bond>
0.063

> <Angle>
2.579

> <Pdih>
0.010

> <Idih>
0.000

> <Tether>
0.000

$$$$
VeraChem MOL file


 17 16  0  0  0  0  0  0  0  0999 V2000     
   18.0503   18.0536   19.9140 C   0  0  0  0  0  0  0  0  0  0  0  0
   18.8233   17.5006   19.1542 O   0  5  0  0  0  0  0  0  0  0  0  0
   16.8493   17.8676   19.8841 O   0  0  0  0  0  0  0  0  0  0  0  0
   18.5732   19.0060   20.9306 C   0  0  0  0  0  0  0  0  0  0  0  0
   17.8294   19.4661   21.5770 H   0  0  0  0  0  0  0  0  0  0  0  0
   19.8835   19.3067   21.0779 C   0  0  0  0  0  0  0  0  0  0  0  0
   20.6375   18.8491   20.4379 H   0  0  0  0  0  0  0  0  0  0  0  0
   20.4088   20.2743   22.1175 C   0  0  0  0  0  0  0  0  0  0  0  0
   19.7370   21.1405   22.1872 H   0  0  0  0  0  0  0  0  0  0  0  0
   21.3842   20.6680   21.8015 H   0  0  0  0  0  0  0  0  0  0  0  0
   20.5419   19.6235   23.5119 C   0  0  0  0  0  0  0  0  0  0  0  0
   20.8238   20.3941   24.2425 H   0  0  0  0  0  0  0  0  0  0  0  0
   19.5671   19.2297   23.8315 H   0  0  0  0  0  0  0  0  0  0  0  0
   21.5934   18.4937   23.5393 C   0  0  0  0  0  0  0  0  0  0  0  0
   22.5797   18.8677   23.2352 H   0  0  0  0  0  0  0  0  0  0  0  0
   21.6859   18.0771   24.5506 H   0  0  0  0  0  0  0  0  0  0  0  0
   21.3134   17.6756   22.8629 H   0  0  0  0  0  0  0  0  0  0  0  0
  1  2  1  0  0  0  0
  1  3  2  0  0  0  0
  1  4  1  0  0  0  0
  4  5  1  0  0  0  0
  4  6  2  0  0  0  0
  6  7  1  0  0  0  0
  6  8  1  0  0  0  0
  8  9  1  0  0  0  0
  8 10  1  0  0  0  0
  8 11  1  0  0  0  0
 11 12  1  0  0  0  0
 11 13  1  0  0  0  0
 11 14  1  0  0  0  0
 14 15  1  0  0  0  0
 14 16  1  0  0  0  0
 14 17  1  0  0  0  0
M  END
> <VConfSearch Rank>
671

> <Conf_Id>
3

> <Delta U+W>
0.531

> <U+W>
-52.878

> <U>
10.067

> <W>
-62.945

> <W(PB)>
-64.982

> <W(SA)>
2.037

> <Valence>
2.779

> <Coulomb>
6.474

> <VdW>
0.815

> <VdW6>
-5.088

> <VdW12>
5.902

> <Bond>
0.078

> <Angle>
2.651

> <Pdih>
0.050

> <Idih>
0.000

> <Tether>
0.000

$$$$
VeraChem MOL file


 17 16  0  0  0  0  0  0  0  0999 V2000     
   20.2544   21.4440   20.1938 C   0  0  0  0  0  0  0  0  0  0  0  0
   19.4061   22.2110   19.7817 O   0  5  0  0  0  0  0  0  0  0  0  0
   21.3199   21.2737   19.6315 O   0  0  0  0  0  0  0  0  0  0  0  0
   19.9545   20.6946   21.4439 C   0  0  0  0  0  0  0  0  0  0  0  0
   18.9852   20.8939   21.8949 H   0  0  0  0  0  0  0  0  0  0  0  0
   20.8034   19.8089   22.0135 C   0  0  0  0  0  0  0  0  0  0  0  0
   21.7751   19.6006   21.5663 H   0  0  0  0  0  0  0  0  0  0  0  0
   20.4942   19.0455   23.2847 C   0  0  0  0  0  0  0  0  0  0  0  0
   19.6647   19.5188   23.8276 H   0  0  0  0  0  0  0  0  0  0  0  0
   21.3641   19.0949   23.9531 H   0  0  0  0  0  0  0  0  0  0  0  0
   20.1565   17.5635   23.0110 C   0  0  0  0  0  0  0  0  0  0  0  0
   20.9846   17.0899   22.4655 H   0  0  0  0  0  0  0  0  0  0  0  0
   20.0680   17.0331   23.9691 H   0  0  0  0  0  0  0  0  0  0  0  0
   18.8441   17.3902   22.2171 C   0  0  0  0  0  0  0  0  0  0  0  0
   18.9174   17.8533   21.2245 H   0  0  0  0  0  0  0  0  0  0  0  0
   18.6162   16.3258   22.0755 H   0  0  0  0  0  0  0  0  0  0  0  0
   18.0005   17.8500   22.7481 H   0  0  0  0  0  0  0  0  0  0  0  0
  1  2  1  0  0  0  0
  1  3  2  0  0  0  0
  1  4  1  0  0  0  0
  4  5  1  0  0  0  0
  4  6  2  0  0  0  0
  6  7  1  0  0  0  0
  6  8  1  0  0  0  0
  8  9  1  0  0  0  0
  8 10  1  0  0  0  0
  8 11  1  0  0  0  0
 11 12  1  0  0  0  0
 11 13  1  0  0  0  0
 11 14  1  0  0  0  0
 14 15  1  0  0  0  0
 14 16  1  0  0  0  0
 14 17  1  0  0  0  0
M  END
> <VConfSearch Rank>
672

> <Conf_Id>
45

> <Delta U+W>
0.562

> <U+W>
-52.846

> <U>
10.243

> <W>
-63.089

> <W(PB)>
-65.116

> <W(SA)>
2.026

> <Valence>
2.822

> <Coulomb>
6.637

> <VdW>
0.785

> <VdW6>
-5.216

> <VdW12>
6.001

> <Bond>
0.080

> <Angle>
2.678

> <Pdih>
0.064

> <Idih>
0.000

> <Tether>
0.000

$$$$
VeraChem MOL file


 17 16  0  0  0  0  0  0  0  0999 V2000     
   20.0503   16.0032   20.6196 C   0  0  0  0  0  0  0  0  0  0  0  0
   19.9875   14.9316   21.1902 O   0  5  0  0  0  0  0  0  0  0  0  0
   20.3786   16.1122   19.4531 O   0  0  0  0  0  0  0  0  0  0  0  0
   19.7043   17.2203   21.4025 C   0  0  0  0  0  0  0  0  0  0  0  0
   19.4194   17.0530   22.4387 H   0  0  0  0  0  0  0  0  0  0  0  0
   19.7317   18.4745   20.8972 C   0  0  0  0  0  0  0  0  0  0  0  0
   20.0179   18.6537   19.8610 H   0  0  0  0  0  0  0  0  0  0  0  0
   19.3804   19.7074   21.7009 C   0  0  0  0  0  0  0  0  0  0  0  0
   18.5366   19.4915   22.3704 H   0  0  0  0  0  0  0  0  0  0  0  0
   19.0459   20.5049   21.0238 H   0  0  0  0  0  0  0  0  0  0  0  0
   20.5859   20.2026   22.5258 C   0  0  0  0  0  0  0  0  0  0  0  0
   20.9192   19.4073   23.2069 H   0  0  0  0  0  0  0  0  0  0  0  0
   21.4278   20.4199   21.8539 H   0  0  0  0  0  0  0  0  0  0  0  0
   20.2388   21.4647   23.3408 C   0  0  0  0  0  0  0  0  0  0  0  0
   19.9324   22.2868   22.6807 H   0  0  0  0  0  0  0  0  0  0  0  0
   19.4191   21.2655   24.0435 H   0  0  0  0  0  0  0  0  0  0  0  0
   21.1078   21.8018   23.9207 H   0  0  0  0  0  0  0  0  0  0  0  0
  1  2  1  0  0  0  0
  1  3  2  0  0  0  0
  1  4  1  0  0  0  0
  4  5  1  0  0  0  0
  4  6  2  0  0  0  0
  6  7  1  0  0  0  0
  6  8  1  0  0  0  0
  8  9  1  0  0  0  0
  8 10  1  0  0  0  0
  8 11  1  0  0  0  0
 11 12  1  0  0  0  0
 11 13  1  0  0  0  0
 11 14  1  0  0  0  0
 14 15  1  0  0  0  0
 14 16  1  0  0  0  0
 14 17  1  0  0  0  0
M  END
> <VConfSearch Rank>
673

> <Conf_Id>
36

> <Delta U+W>
0.000

> <U+W>
-53.409

> <U>
9.048

> <W>
-62.457

> <W(PB)>
-64.540

> <W(SA)>
2.084

> <Valence>
2.652

> <Coulomb>
5.578

> <VdW>
0.818

> <VdW6>
-4.534

> <VdW12>
5.352

> <Bond>
0.063

> <Angle>
2.579

> <Pdih>
0.010

> <Idih>
0.000

> <Tether>
0.000

$$$$
VeraChem MOL file


 17 16  0  0  0  0  0  0  0  0999 V2000     
   22.6544   20.7068   20.5709 C   0  0  0  0  0  0  0  0  0  0  0  0
   22.8360   20.2282   19.4671 O   0  5  0  0  0  0  0  0  0  0  0  0
   23.4466   21.4605   21.1019 O   0  0  0  0  0  0  0  0  0  0  0  0
   21.4151   20.3707   21.3228 C   0  0  0  0  0  0  0  0  0  0  0  0
   21.3148   20.8318   22.3027 H   0  0  0  0  0  0  0  0  0  0  0  0
   20.4500   19.5466   20.8555 C   0  0  0  0  0  0  0  0  0  0  0  0
   20.5414   19.0775   19.8760 H   0  0  0  0  0  0  0  0  0  0  0  0
   19.1935   19.2085   21.6275 C   0  0  0  0  0  0  0  0  0  0  0  0
   18.3985   18.9183   20.9273 H   0  0  0  0  0  0  0  0  0  0  0  0
   18.8304   20.0971   22.1617 H   0  0  0  0  0  0  0  0  0  0  0  0
   19.4412   18.0632   22.6304 C   0  0  0  0  0  0  0  0  0  0  0  0
   19.8022   17.1749   22.0935 H   0  0  0  0  0  0  0  0  0  0  0  0
   20.2335   18.3535   23.3343 H   0  0  0  0  0  0  0  0  0  0  0  0
   18.1626   17.7063   23.4149 C   0  0  0  0  0  0  0  0  0  0  0  0
   17.3629   17.3817   22.7363 H   0  0  0  0  0  0  0  0  0  0  0  0
   18.3583   16.8903   24.1228 H   0  0  0  0  0  0  0  0  0  0  0  0
   17.7982   18.5702   23.9861 H   0  0  0  0  0  0  0  0  0  0  0  0
  1  2  1  0  0  0  0
  1  3  2  0  0  0  0
  1  4  1  0  0  0  0
  4  5  1  0  0  0  0
  4  6  2  0  0  0  0
  6  7  1  0  0  0  0
  6  8  1  0  0  0  0
  8  9  1  0  0  0  0
  8 10  1  0  0  0  0
  8 11  1  0  0  0  0
 11 12  1  0  0  0  0
 11 13  1  0  0  0  0
 11 14  1  0  0  0  0
 14 15  1  0  0  0  0
 14 16  1  0  0  0  0
 14 17  1  0  0  0  0
M  END
> <VConfSearch Rank>
674

> <Conf_Id>
1

> <Delta U+W>
0.030

> <U+W>
-53.378

> <U>
9.048

> <W>
-62.426

> <W(PB)>
-64.506

> <W(SA)>
2.080

> <Valence>
2.652

> <Coulomb>
5.578

> <VdW>
0.818

> <VdW6>
-4.535

> <VdW12>
5.352

> <Bond>
0.063

> <Angle>
2.579

> <Pdih>
0.010

> <Idih>
0.000

> <Tether>
0.000

$$$$
VeraChem MOL file


 17 16  0  0  0  0  0  0  0  0999 V2000     
   18.2429   18.5404   19.5897 C   0  0  0  0  0  0  0  0  0  0  0  0
   18.5884   17.4056   19.3189 O   0  5  0  0  0  0  0  0  0  0  0  0
   17.2338   19.0479   19.1404 O   0  0  0  0  0  0  0  0  0  0  0  0
   19.0772   19.3641   20.5059 C   0  0  0  0  0  0  0  0  0  0  0  0
   18.7125   20.3691   20.7055 H   0  0  0  0  0  0  0  0  0  0  0  0
   20.2222   18.9285   21.0789 C   0  0  0  0  0  0  0  0  0  0  0  0
   20.5950   17.9224   20.8885 H   0  0  0  0  0  0  0  0  0  0  0  0
   21.0641   19.7715   22.0136 C   0  0  0  0  0  0  0  0  0  0  0  0
   21.1123   20.8023   21.6373 H   0  0  0  0  0  0  0  0  0  0  0  0
   22.0976   19.4000   22.0218 H   0  0  0  0  0  0  0  0  0  0  0  0
   20.5085   19.7841   23.4547 C   0  0  0  0  0  0  0  0  0  0  0  0
   21.0939   20.4906   24.0592 H   0  0  0  0  0  0  0  0  0  0  0  0
   19.4748   20.1565   23.4499 H   0  0  0  0  0  0  0  0  0  0  0  0
   20.5563   18.3916   24.1192 C   0  0  0  0  0  0  0  0  0  0  0  0
   21.5832   18.0045   24.1464 H   0  0  0  0  0  0  0  0  0  0  0  0
   20.1862   18.4437   25.1513 H   0  0  0  0  0  0  0  0  0  0  0  0
   19.9326   17.6711   23.5742 H   0  0  0  0  0  0  0  0  0  0  0  0
  1  2  1  0  0  0  0
  1  3  2  0  0  0  0
  1  4  1  0  0  0  0
  4  5  1  0  0  0  0
  4  6  2  0  0  0  0
  6  7  1  0  0  0  0
  6  8  1  0  0  0  0
  8  9  1  0  0  0  0
  8 10  1  0  0  0  0
  8 11  1  0  0  0  0
 11 12  1  0  0  0  0
 11 13  1  0  0  0  0
 11 14  1  0  0  0  0
 14 15  1  0  0  0  0
 14 16  1  0  0  0  0
 14 17  1  0  0  0  0
M  END
> <VConfSearch Rank>
675

> <Conf_Id>
3

> <Delta U+W>
0.531

> <U+W>
-52.878

> <U>
10.067

> <W>
-62.945

> <W(PB)>
-64.982

> <W(SA)>
2.037

> <Valence>
2.779

> <Coulomb>
6.474

> <VdW>
0.815

> <VdW6>
-5.088

> <VdW12>
5.902

> <Bond>
0.078

> <Angle>
2.651

> <Pdih>
0.050

> <Idih>
0.000

> <Tether>
0.000

$$$$
VeraChem MOL file


 17 16  0  0  0  0  0  0  0  0999 V2000     
   22.3539   18.7133   23.8985 C   0  0  0  0  0  0  0  0  0  0  0  0
   23.3674   19.3768   24.0006 O   0  5  0  0  0  0  0  0  0  0  0  0
   22.2800   17.5584   24.2743 O   0  0  0  0  0  0  0  0  0  0  0  0
   21.1644   19.3652   23.2868 C   0  0  0  0  0  0  0  0  0  0  0  0
   21.2988   20.3978   22.9731 H   0  0  0  0  0  0  0  0  0  0  0  0
   19.9744   18.7471   23.1090 C   0  0  0  0  0  0  0  0  0  0  0  0
   19.8323   17.7115   23.4172 H   0  0  0  0  0  0  0  0  0  0  0  0
   18.7661   19.4125   22.4835 C   0  0  0  0  0  0  0  0  0  0  0  0
   18.8825   20.5049   22.4848 H   0  0  0  0  0  0  0  0  0  0  0  0
   17.8813   19.1992   23.0980 H   0  0  0  0  0  0  0  0  0  0  0  0
   18.5059   18.9201   21.0430 C   0  0  0  0  0  0  0  0  0  0  0  0
   18.3919   17.8272   21.0404 H   0  0  0  0  0  0  0  0  0  0  0  0
   17.5525   19.3359   20.6888 H   0  0  0  0  0  0  0  0  0  0  0  0
   19.6273   19.3286   20.0640 C   0  0  0  0  0  0  0  0  0  0  0  0
   20.5865   18.8777   20.3500 H   0  0  0  0  0  0  0  0  0  0  0  0
   19.3901   18.9966   19.0450 H   0  0  0  0  0  0  0  0  0  0  0  0
   19.7537   20.4189   20.0448 H   0  0  0  0  0  0  0  0  0  0  0  0
  1  2  1  0  0  0  0
  1  3  2  0  0  0  0
  1  4  1  0  0  0  0
  4  5  1  0  0  0  0
  4  6  2  0  0  0  0
  6  7  1  0  0  0  0
  6  8  1  0  0  0  0
  8  9  1  0  0  0  0
  8 10  1  0  0  0  0
  8 11  1  0  0  0  0
 11 12  1  0  0  0  0
 11 13  1  0  0  0  0
 11 14  1  0  0  0  0
 14 15  1  0  0  0  0
 14 16  1  0  0  0  0
 14 17  1  0  0  0  0
M  END
> <VConfSearch Rank>
676

> <Conf_Id>
45

> <Delta U+W>
0.562

> <U+W>
-52.846

> <U>
10.243

> <W>
-63.089

> <W(PB)>
-65.116

> <W(SA)>
2.026

> <Valence>
2.822

> <Coulomb>
6.637

> <VdW>
0.785

> <VdW6>
-5.216

> <VdW12>
6.001

> <Bond>
0.080

> <Angle>
2.678

> <Pdih>
0.064

> <Idih>
0.000

> <Tether>
0.000

$$$$
VeraChem MOL file


 17 16  0  0  0  0  0  0  0  0999 V2000     
   21.3839   20.0005   24.8571 C   0  0  0  0  0  0  0  0  0  0  0  0
   22.3910   19.5769   25.3900 O   0  5  0  0  0  0  0  0  0  0  0  0
   20.5673   20.6888   25.4402 O   0  0  0  0  0  0  0  0  0  0  0  0
   21.1627   19.6498   23.4280 C   0  0  0  0  0  0  0  0  0  0  0  0
   21.9300   19.0324   22.9666 H   0  0  0  0  0  0  0  0  0  0  0  0
   20.0880   20.0502   22.7112 C   0  0  0  0  0  0  0  0  0  0  0  0
   19.3121   20.6670   23.1643 H   0  0  0  0  0  0  0  0  0  0  0  0
   19.8695   19.6872   21.2587 C   0  0  0  0  0  0  0  0  0  0  0  0
   20.8258   19.7081   20.7185 H   0  0  0  0  0  0  0  0  0  0  0  0
   19.2261   20.4404   20.7842 H   0  0  0  0  0  0  0  0  0  0  0  0
   19.2229   18.2939   21.1189 C   0  0  0  0  0  0  0  0  0  0  0  0
   19.8675   17.5386   21.5895 H   0  0  0  0  0  0  0  0  0  0  0  0
   18.2657   18.2762   21.6583 H   0  0  0  0  0  0  0  0  0  0  0  0
   18.9882   17.9204   19.6414 C   0  0  0  0  0  0  0  0  0  0  0  0
   18.3201   18.6431   19.1547 H   0  0  0  0  0  0  0  0  0  0  0  0
   19.9351   17.9006   19.0860 H   0  0  0  0  0  0  0  0  0  0  0  0
   18.5280   16.9269   19.5621 H   0  0  0  0  0  0  0  0  0  0  0  0
  1  2  1  0  0  0  0
  1  3  2  0  0  0  0
  1  4  1  0  0  0  0
  4  5  1  0  0  0  0
  4  6  2  0  0  0  0
  6  7  1  0  0  0  0
  6  8  1  0  0  0  0
  8  9  1  0  0  0  0
  8 10  1  0  0  0  0
  8 11  1  0  0  0  0
 11 12  1  0  0  0  0
 11 13  1  0  0  0  0
 11 14  1  0  0  0  0
 14 15  1  0  0  0  0
 14 16  1  0  0  0  0
 14 17  1  0  0  0  0
M  END
> <VConfSearch Rank>
677

> <Conf_Id>
36

> <Delta U+W>
0.000

> <U+W>
-53.409

> <U>
9.048

> <W>
-62.457

> <W(PB)>
-64.540

> <W(SA)>
2.084

> <Valence>
2.652

> <Coulomb>
5.578

> <VdW>
0.818

> <VdW6>
-4.534

> <VdW12>
5.352

> <Bond>
0.063

> <Angle>
2.579

> <Pdih>
0.010

> <Idih>
0.000

> <Tether>
0.000

$$$$
VeraChem MOL file


 17 16  0  0  0  0  0  0  0  0999 V2000     
   20.0398   18.1615   25.1553 C   0  0  0  0  0  0  0  0  0  0  0  0
   20.3452   16.9840   25.1813 O   0  5  0  0  0  0  0  0  0  0  0  0
   19.6254   18.7576   26.1304 O   0  0  0  0  0  0  0  0  0  0  0  0
   20.1718   18.9271   23.8863 C   0  0  0  0  0  0  0  0  0  0  0  0
   19.8822   19.9745   23.9315 H   0  0  0  0  0  0  0  0  0  0  0  0
   20.6172   18.3928   22.7265 C   0  0  0  0  0  0  0  0  0  0  0  0
   20.9080   17.3440   22.6694 H   0  0  0  0  0  0  0  0  0  0  0  0
   20.7467   19.1780   21.4396 C   0  0  0  0  0  0  0  0  0  0  0  0
   21.5034   18.7084   20.7968 H   0  0  0  0  0  0  0  0  0  0  0  0
   21.1057   20.1938   21.6541 H   0  0  0  0  0  0  0  0  0  0  0  0
   19.4023   19.2491   20.6870 C   0  0  0  0  0  0  0  0  0  0  0  0
   19.0464   18.2319   20.4718 H   0  0  0  0  0  0  0  0  0  0  0  0
   18.6450   19.7224   21.3274 H   0  0  0  0  0  0  0  0  0  0  0  0
   19.5280   20.0401   19.3694 C   0  0  0  0  0  0  0  0  0  0  0  0
   20.2569   19.5695   18.6966 H   0  0  0  0  0  0  0  0  0  0  0  0
   18.5625   20.0798   18.8485 H   0  0  0  0  0  0  0  0  0  0  0  0
   19.8530   21.0714   19.5598 H   0  0  0  0  0  0  0  0  0  0  0  0
  1  2  1  0  0  0  0
  1  3  2  0  0  0  0
  1  4  1  0  0  0  0
  4  5  1  0  0  0  0
  4  6  2  0  0  0  0
  6  7  1  0  0  0  0
  6  8  1  0  0  0  0
  8  9  1  0  0  0  0
  8 10  1  0  0  0  0
  8 11  1  0  0  0  0
 11 12  1  0  0  0  0
 11 13  1  0  0  0  0
 11 14  1  0  0  0  0
 14 15  1  0  0  0  0
 14 16  1  0  0  0  0
 14 17  1  0  0  0  0
M  END
> <VConfSearch Rank>
678

> <Conf_Id>
1

> <Delta U+W>
0.030

> <U+W>
-53.378

> <U>
9.048

> <W>
-62.426

> <W(PB)>
-64.506

> <W(SA)>
2.080

> <Valence>
2.652

> <Coulomb>
5.578

> <VdW>
0.818

> <VdW6>
-4.535

> <VdW12>
5.352

> <Bond>
0.063

> <Angle>
2.579

> <Pdih>
0.010

> <Idih>
0.000

> <Tether>
0.000

$$$$
VeraChem MOL file


 17 16  0  0  0  0  0  0  0  0999 V2000     
   19.5884   20.5549   19.3737 C   0  0  0  0  0  0  0  0  0  0  0  0
   18.6148   19.9599   18.9511 O   0  5  0  0  0  0  0  0  0  0  0  0
   19.9583   21.6207   18.9207 O   0  0  0  0  0  0  0  0  0  0  0  0
   20.3792   19.9713   20.4909 C   0  0  0  0  0  0  0  0  0  0  0  0
   21.2370   20.5532   20.8199 H   0  0  0  0  0  0  0  0  0  0  0  0
   20.0828   18.7958   21.0903 C   0  0  0  0  0  0  0  0  0  0  0  0
   19.2237   18.2064   20.7709 H   0  0  0  0  0  0  0  0  0  0  0  0
   20.8901   18.2099   22.2297 C   0  0  0  0  0  0  0  0  0  0  0  0
   21.9611   18.3606   22.0377 H   0  0  0  0  0  0  0  0  0  0  0  0
   20.7371   17.1233   22.2749 H   0  0  0  0  0  0  0  0  0  0  0  0
   20.5265   18.8398   23.5922 C   0  0  0  0  0  0  0  0  0  0  0  0
   21.2122   18.4555   24.3600 H   0  0  0  0  0  0  0  0  0  0  0  0
   20.6799   19.9271   23.5504 H   0  0  0  0  0  0  0  0  0  0  0  0
   19.0736   18.5356   24.0156 C   0  0  0  0  0  0  0  0  0  0  0  0
   18.9007   17.4532   24.0763 H   0  0  0  0  0  0  0  0  0  0  0  0
   18.8602   18.9687   25.0013 H   0  0  0  0  0  0  0  0  0  0  0  0
   18.3559   18.9578   23.3001 H   0  0  0  0  0  0  0  0  0  0  0  0
  1  2  1  0  0  0  0
  1  3  2  0  0  0  0
  1  4  1  0  0  0  0
  4  5  1  0  0  0  0
  4  6  2  0  0  0  0
  6  7  1  0  0  0  0
  6  8  1  0  0  0  0
  8  9  1  0  0  0  0
  8 10  1  0  0  0  0
  8 11  1  0  0  0  0
 11 12  1  0  0  0  0
 11 13  1  0  0  0  0
 11 14  1  0  0  0  0
 14 15  1  0  0  0  0
 14 16  1  0  0  0  0
 14 17  1  0  0  0  0
M  END
> <VConfSearch Rank>
679

> <Conf_Id>
3

> <Delta U+W>
0.531

> <U+W>
-52.878

> <U>
10.067

> <W>
-62.945

> <W(PB)>
-64.982

> <W(SA)>
2.037

> <Valence>
2.779

> <Coulomb>
6.474

> <VdW>
0.815

> <VdW6>
-5.088

> <VdW12>
5.902

> <Bond>
0.078

> <Angle>
2.651

> <Pdih>
0.050

> <Idih>
0.000

> <Tether>
0.000

$$$$
VeraChem MOL file


 17 16  0  0  0  0  0  0  0  0999 V2000     
   18.2310   16.7053   21.4957 C   0  0  0  0  0  0  0  0  0  0  0  0
   17.5198   16.4799   20.5359 O   0  5  0  0  0  0  0  0  0  0  0  0
   18.0863   16.1514   22.5693 O   0  0  0  0  0  0  0  0  0  0  0  0
   19.3210   17.7035   21.3242 C   0  0  0  0  0  0  0  0  0  0  0  0
   19.3945   18.1606   20.3401 H   0  0  0  0  0  0  0  0  0  0  0  0
   20.1840   18.0531   22.3053 C   0  0  0  0  0  0  0  0  0  0  0  0
   20.1151   17.6028   23.2953 H   0  0  0  0  0  0  0  0  0  0  0  0
   21.2909   19.0718   22.1285 C   0  0  0  0  0  0  0  0  0  0  0  0
   21.4900   19.2449   21.0621 H   0  0  0  0  0  0  0  0  0  0  0  0
   22.2207   18.6677   22.5508 H   0  0  0  0  0  0  0  0  0  0  0  0
   20.9683   20.4141   22.8208 C   0  0  0  0  0  0  0  0  0  0  0  0
   20.7665   20.2414   23.8870 H   0  0  0  0  0  0  0  0  0  0  0  0
   21.8520   21.0650   22.7701 H   0  0  0  0  0  0  0  0  0  0  0  0
   19.7698   21.1421   22.1756 C   0  0  0  0  0  0  0  0  0  0  0  0
   18.8509   20.5482   22.2644 H   0  0  0  0  0  0  0  0  0  0  0  0
   19.5947   22.1079   22.6670 H   0  0  0  0  0  0  0  0  0  0  0  0
   19.9532   21.3320   21.1100 H   0  0  0  0  0  0  0  0  0  0  0  0
  1  2  1  0  0  0  0
  1  3  2  0  0  0  0
  1  4  1  0  0  0  0
  4  5  1  0  0  0  0
  4  6  2  0  0  0  0
  6  7  1  0  0  0  0
  6  8  1  0  0  0  0
  8  9  1  0  0  0  0
  8 10  1  0  0  0  0
  8 11  1  0  0  0  0
 11 12  1  0  0  0  0
 11 13  1  0  0  0  0
 11 14  1  0  0  0  0
 14 15  1  0  0  0  0
 14 16  1  0  0  0  0
 14 17  1  0  0  0  0
M  END
> <VConfSearch Rank>
680

> <Conf_Id>
45

> <Delta U+W>
0.562

> <U+W>
-52.846

> <U>
10.243

> <W>
-63.089

> <W(PB)>
-65.116

> <W(SA)>
2.026

> <Valence>
2.822

> <Coulomb>
6.637

> <VdW>
0.785

> <VdW6>
-5.216

> <VdW12>
6.001

> <Bond>
0.080

> <Angle>
2.678

> <Pdih>
0.064

> <Idih>
0.000

> <Tether>
0.000

$$$$
VeraChem MOL file


 17 16  0  0  0  0  0  0  0  0999 V2000     
   16.9812   17.6830   22.4111 C   0  0  0  0  0  0  0  0  0  0  0  0
   15.9361   17.8617   21.8165 O   0  5  0  0  0  0  0  0  0  0  0  0
   17.0452   17.0877   23.4704 O   0  0  0  0  0  0  0  0  0  0  0  0
   18.2234   18.2239   21.7960 C   0  0  0  0  0  0  0  0  0  0  0  0
   18.0965   18.7450   20.8498 H   0  0  0  0  0  0  0  0  0  0  0  0
   19.4527   18.1001   22.3462 C   0  0  0  0  0  0  0  0  0  0  0  0
   19.5909   17.5820   23.2950 H   0  0  0  0  0  0  0  0  0  0  0  0
   20.7108   18.6551   21.7151 C   0  0  0  0  0  0  0  0  0  0  0  0
   20.6718   18.5275   20.6247 H   0  0  0  0  0  0  0  0  0  0  0  0
   21.5810   18.0838   22.0655 H   0  0  0  0  0  0  0  0  0  0  0  0
   20.9005   20.1468   22.0582 C   0  0  0  0  0  0  0  0  0  0  0  0
   20.0326   20.7205   21.7044 H   0  0  0  0  0  0  0  0  0  0  0  0
   20.9413   20.2716   23.1492 H   0  0  0  0  0  0  0  0  0  0  0  0
   22.1859   20.7178   21.4263 C   0  0  0  0  0  0  0  0  0  0  0  0
   23.0733   20.1820   21.7882 H   0  0  0  0  0  0  0  0  0  0  0  0
   22.1568   20.6333   20.3320 H   0  0  0  0  0  0  0  0  0  0  0  0
   22.3037   21.7791   21.6811 H   0  0  0  0  0  0  0  0  0  0  0  0
  1  2  1  0  0  0  0
  1  3  2  0  0  0  0
  1  4  1  0  0  0  0
  4  5  1  0  0  0  0
  4  6  2  0  0  0  0
  6  7  1  0  0  0  0
  6  8  1  0  0  0  0
  8  9  1  0  0  0  0
  8 10  1  0  0  0  0
  8 11  1  0  0  0  0
 11 12  1  0  0  0  0
 11 13  1  0  0  0  0
 11 14  1  0  0  0  0
 14 15  1  0  0  0  0
 14 16  1  0  0  0  0
 14 17  1  0  0  0  0
M  END
> <VConfSearch Rank>
681

> <Conf_Id>
36

> <Delta U+W>
0.000

> <U+W>
-53.409

> <U>
9.048

> <W>
-62.457

> <W(PB)>
-64.540

> <W(SA)>
2.084

> <Valence>
2.652

> <Coulomb>
5.578

> <VdW>
0.818

> <VdW6>
-4.534

> <VdW12>
5.352

> <Bond>
0.063

> <Angle>
2.579

> <Pdih>
0.010

> <Idih>
0.000

> <Tether>
0.000

$$$$
VeraChem MOL file


 17 16  0  0  0  0  0  0  0  0999 V2000     
   23.1719   19.7988   22.8664 C   0  0  0  0  0  0  0  0  0  0  0  0
   23.0995   20.6799   23.7023 O   0  5  0  0  0  0  0  0  0  0  0  0
   24.2229   19.4488   22.3657 O   0  0  0  0  0  0  0  0  0  0  0  0
   21.9336   19.1033   22.4225 C   0  0  0  0  0  0  0  0  0  0  0  0
   22.0683   18.3261   21.6737 H   0  0  0  0  0  0  0  0  0  0  0  0
   20.6984   19.3897   22.8929 C   0  0  0  0  0  0  0  0  0  0  0  0
   20.5519   20.1680   23.6417 H   0  0  0  0  0  0  0  0  0  0  0  0
   19.4438   18.6788   22.4348 C   0  0  0  0  0  0  0  0  0  0  0  0
   18.6777   18.7425   23.2193 H   0  0  0  0  0  0  0  0  0  0  0  0
   19.6507   17.6102   22.2861 H   0  0  0  0  0  0  0  0  0  0  0  0
   18.8970   19.2898   21.1284 C   0  0  0  0  0  0  0  0  0  0  0  0
   18.6888   20.3581   21.2803 H   0  0  0  0  0  0  0  0  0  0  0  0
   19.6609   19.2232   20.3413 H   0  0  0  0  0  0  0  0  0  0  0  0
   17.6128   18.5766   20.6597 C   0  0  0  0  0  0  0  0  0  0  0  0
   16.8210   18.6555   21.4162 H   0  0  0  0  0  0  0  0  0  0  0  0
   17.2389   19.0247   19.7299 H   0  0  0  0  0  0  0  0  0  0  0  0
   17.8015   17.5117   20.4706 H   0  0  0  0  0  0  0  0  0  0  0  0
  1  2  1  0  0  0  0
  1  3  2  0  0  0  0
  1  4  1  0  0  0  0
  4  5  1  0  0  0  0
  4  6  2  0  0  0  0
  6  7  1  0  0  0  0
  6  8  1  0  0  0  0
  8  9  1  0  0  0  0
  8 10  1  0  0  0  0
  8 11  1  0  0  0  0
 11 12  1  0  0  0  0
 11 13  1  0  0  0  0
 11 14  1  0  0  0  0
 14 15  1  0  0  0  0
 14 16  1  0  0  0  0
 14 17  1  0  0  0  0
M  END
> <VConfSearch Rank>
682

> <Conf_Id>
1

> <Delta U+W>
0.030

> <U+W>
-53.378

> <U>
9.048

> <W>
-62.426

> <W(PB)>
-64.506

> <W(SA)>
2.080

> <Valence>
2.652

> <Coulomb>
5.578

> <VdW>
0.818

> <VdW6>
-4.535

> <VdW12>
5.352

> <Bond>
0.063

> <Angle>
2.579

> <Pdih>
0.010

> <Idih>
0.000

> <Tether>
0.000

$$$$
VeraChem MOL file


 17 16  0  0  0  0  0  0  0  0999 V2000     
   21.3171   16.9300   20.2749 C   0  0  0  0  0  0  0  0  0  0  0  0
   21.9677   17.6294   19.5212 O   0  5  0  0  0  0  0  0  0  0  0  0
   21.5017   15.7339   20.3895 O   0  0  0  0  0  0  0  0  0  0  0  0
   20.2407   17.5415   21.1004 C   0  0  0  0  0  0  0  0  0  0  0  0
   19.6972   16.8609   21.7517 H   0  0  0  0  0  0  0  0  0  0  0  0
   19.9273   18.8569   21.0757 C   0  0  0  0  0  0  0  0  0  0  0  0
   20.4676   19.5482   20.4294 H   0  0  0  0  0  0  0  0  0  0  0  0
   18.8328   19.4729   21.9217 C   0  0  0  0  0  0  0  0  0  0  0  0
   17.9629   18.8026   21.9436 H   0  0  0  0  0  0  0  0  0  0  0  0
   18.4872   20.4081   21.4611 H   0  0  0  0  0  0  0  0  0  0  0  0
   19.2948   19.7501   23.3692 C   0  0  0  0  0  0  0  0  0  0  0  0
   18.4355   20.0953   23.9606 H   0  0  0  0  0  0  0  0  0  0  0  0
   19.6400   18.8158   23.8332 H   0  0  0  0  0  0  0  0  0  0  0  0
   20.4143   20.8104   23.4399 C   0  0  0  0  0  0  0  0  0  0  0  0
   20.0867   21.7579   22.9926 H   0  0  0  0  0  0  0  0  0  0  0  0
   20.6944   21.0070   24.4829 H   0  0  0  0  0  0  0  0  0  0  0  0
   21.3136   20.4730   22.9081 H   0  0  0  0  0  0  0  0  0  0  0  0
  1  2  1  0  0  0  0
  1  3  2  0  0  0  0
  1  4  1  0  0  0  0
  4  5  1  0  0  0  0
  4  6  2  0  0  0  0
  6  7  1  0  0  0  0
  6  8  1  0  0  0  0
  8  9  1  0  0  0  0
  8 10  1  0  0  0  0
  8 11  1  0  0  0  0
 11 12  1  0  0  0  0
 11 13  1  0  0  0  0
 11 14  1  0  0  0  0
 14 15  1  0  0  0  0
 14 16  1  0  0  0  0
 14 17  1  0  0  0  0
M  END
> <VConfSearch Rank>
683

> <Conf_Id>
3

> <Delta U+W>
0.531

> <U+W>
-52.878

> <U>
10.067

> <W>
-62.945

> <W(PB)>
-64.982

> <W(SA)>
2.037

> <Valence>
2.779

> <Coulomb>
6.474

> <VdW>
0.815

> <VdW6>
-5.088

> <VdW12>
5.902

> <Bond>
0.078

> <Angle>
2.651

> <Pdih>
0.050

> <Idih>
0.000

> <Tether>
0.000

$$$$
VeraChem MOL file


 17 16  0  0  0  0  0  0  0  0999 V2000     
   18.4536   18.4746   24.6078 C   0  0  0  0  0  0  0  0  0  0  0  0
   17.6280   17.6081   24.8210 O   0  5  0  0  0  0  0  0  0  0  0  0
   18.5504   19.4769   25.2908 O   0  0  0  0  0  0  0  0  0  0  0  0
   19.3766   18.2765   23.4576 C   0  0  0  0  0  0  0  0  0  0  0  0
   19.2358   17.3599   22.8895 H   0  0  0  0  0  0  0  0  0  0  0  0
   20.3397   19.1578   23.1038 C   0  0  0  0  0  0  0  0  0  0  0  0
   20.4852   20.0803   23.6654 H   0  0  0  0  0  0  0  0  0  0  0  0
   21.2761   18.9546   21.9307 C   0  0  0  0  0  0  0  0  0  0  0  0
   21.2784   17.9022   21.6159 H   0  0  0  0  0  0  0  0  0  0  0  0
   22.3028   19.1804   22.2483 H   0  0  0  0  0  0  0  0  0  0  0  0
   20.9142   19.8549   20.7291 C   0  0  0  0  0  0  0  0  0  0  0  0
   20.9091   20.9077   21.0438 H   0  0  0  0  0  0  0  0  0  0  0  0
   21.6954   19.7603   19.9623 H   0  0  0  0  0  0  0  0  0  0  0  0
   19.5500   19.4919   20.1046 C   0  0  0  0  0  0  0  0  0  0  0  0
   18.7338   19.6364   20.8243 H   0  0  0  0  0  0  0  0  0  0  0  0
   19.3445   20.1247   19.2316 H   0  0  0  0  0  0  0  0  0  0  0  0
   19.5352   18.4447   19.7755 H   0  0  0  0  0  0  0  0  0  0  0  0
  1  2  1  0  0  0  0
  1  3  2  0  0  0  0
  1  4  1  0  0  0  0
  4  5  1  0  0  0  0
  4  6  2  0  0  0  0
  6  7  1  0  0  0  0
  6  8  1  0  0  0  0
  8  9  1  0  0  0  0
  8 10  1  0  0  0  0
  8 11  1  0  0  0  0
 11 12  1  0  0  0  0
 11 13  1  0  0  0  0
 11 14  1  0  0  0  0
 14 15  1  0  0  0  0
 14 16  1  0  0  0  0
 14 17  1  0  0  0  0
M  END
> <VConfSearch Rank>
684

> <Conf_Id>
45

> <Delta U+W>
0.562

> <U+W>
-52.846

> <U>
10.243

> <W>
-63.089

> <W(PB)>
-65.116

> <W(SA)>
2.026

> <Valence>
2.822

> <Coulomb>
6.637

> <VdW>
0.785

> <VdW6>
-5.216

> <VdW12>
6.001

> <Bond>
0.080

> <Angle>
2.678

> <Pdih>
0.064

> <Idih>
0.000

> <Tether>
0.000

$$$$
VeraChem MOL file


 17 16  0  0  0  0  0  0  0  0999 V2000     
   17.6505   17.1630   20.4751 C   0  0  0  0  0  0  0  0  0  0  0  0
   16.4503   17.1336   20.6655 O   0  5  0  0  0  0  0  0  0  0  0  0
   18.2436   16.2955   19.8618 O   0  0  0  0  0  0  0  0  0  0  0  0
   18.4056   18.3215   21.0245 C   0  0  0  0  0  0  0  0  0  0  0  0
   17.8158   19.0607   21.5618 H   0  0  0  0  0  0  0  0  0  0  0  0
   19.7416   18.4829   20.8895 C   0  0  0  0  0  0  0  0  0  0  0  0
   20.3424   17.7472   20.3552 H   0  0  0  0  0  0  0  0  0  0  0  0
   20.5022   19.6631   21.4532 C   0  0  0  0  0  0  0  0  0  0  0  0
   19.9073   20.5801   21.3443 H   0  0  0  0  0  0  0  0  0  0  0  0
   21.4230   19.8174   20.8748 H   0  0  0  0  0  0  0  0  0  0  0  0
   20.8562   19.4457   22.9387 C   0  0  0  0  0  0  0  0  0  0  0  0
   19.9357   19.2952   23.5196 H   0  0  0  0  0  0  0  0  0  0  0  0
   21.4530   18.5291   23.0448 H   0  0  0  0  0  0  0  0  0  0  0  0
   21.6401   20.6403   23.5184 C   0  0  0  0  0  0  0  0  0  0  0  0
   22.5818   20.7932   22.9751 H   0  0  0  0  0  0  0  0  0  0  0  0
   21.0520   21.5651   23.4525 H   0  0  0  0  0  0  0  0  0  0  0  0
   21.8826   20.4676   24.5750 H   0  0  0  0  0  0  0  0  0  0  0  0
  1  2  1  0  0  0  0
  1  3  2  0  0  0  0
  1  4  1  0  0  0  0
  4  5  1  0  0  0  0
  4  6  2  0  0  0  0
  6  7  1  0  0  0  0
  6  8  1  0  0  0  0
  8  9  1  0  0  0  0
  8 10  1  0  0  0  0
  8 11  1  0  0  0  0
 11 12  1  0  0  0  0
 11 13  1  0  0  0  0
 11 14  1  0  0  0  0
 14 15  1  0  0  0  0
 14 16  1  0  0  0  0
 14 17  1  0  0  0  0
M  END
> <VConfSearch Rank>
685

> <Conf_Id>
36

> <Delta U+W>
0.000

> <U+W>
-53.409

> <U>
9.048

> <W>
-62.457

> <W(PB)>
-64.540

> <W(SA)>
2.084

> <Valence>
2.652

> <Coulomb>
5.578

> <VdW>
0.818

> <VdW6>
-4.534

> <VdW12>
5.352

> <Bond>
0.063

> <Angle>
2.579

> <Pdih>
0.010

> <Idih>
0.000

> <Tether>
0.000

$$$$
VeraChem MOL file


 17 16  0  0  0  0  0  0  0  0999 V2000     
   21.3175   18.1711   24.8849 C   0  0  0  0  0  0  0  0  0  0  0  0
   20.3901   17.7876   25.5729 O   0  5  0  0  0  0  0  0  0  0  0  0
   22.4333   18.3619   25.3279 O   0  0  0  0  0  0  0  0  0  0  0  0
   21.1013   18.4232   23.4344 C   0  0  0  0  0  0  0  0  0  0  0  0
   21.9709   18.7641   22.8772 H   0  0  0  0  0  0  0  0  0  0  0  0
   19.9142   18.2542   22.8087 C   0  0  0  0  0  0  0  0  0  0  0  0
   19.0360   17.9152   23.3579 H   0  0  0  0  0  0  0  0  0  0  0  0
   19.7024   18.5147   21.3334 C   0  0  0  0  0  0  0  0  0  0  0  0
   18.8541   17.9174   20.9726 H   0  0  0  0  0  0  0  0  0  0  0  0
   20.5818   18.1846   20.7637 H   0  0  0  0  0  0  0  0  0  0  0  0
   19.4353   20.0088   21.0593 C   0  0  0  0  0  0  0  0  0  0  0  0
   18.5541   20.3360   21.6284 H   0  0  0  0  0  0  0  0  0  0  0  0
   20.2850   20.6075   21.4160 H   0  0  0  0  0  0  0  0  0  0  0  0
   19.2091   20.2812   19.5585 C   0  0  0  0  0  0  0  0  0  0  0  0
   18.3444   19.7184   19.1829 H   0  0  0  0  0  0  0  0  0  0  0  0
   19.0208   21.3484   19.3833 H   0  0  0  0  0  0  0  0  0  0  0  0
   20.0892   19.9912   18.9696 H   0  0  0  0  0  0  0  0  0  0  0  0
  1  2  1  0  0  0  0
  1  3  2  0  0  0  0
  1  4  1  0  0  0  0
  4  5  1  0  0  0  0
  4  6  2  0  0  0  0
  6  7  1  0  0  0  0
  6  8  1  0  0  0  0
  8  9  1  0  0  0  0
  8 10  1  0  0  0  0
  8 11  1  0  0  0  0
 11 12  1  0  0  0  0
 11 13  1  0  0  0  0
 11 14  1  0  0  0  0
 14 15  1  0  0  0  0
 14 16  1  0  0  0  0
 14 17  1  0  0  0  0
M  END
> <VConfSearch Rank>
686

> <Conf_Id>
1

> <Delta U+W>
0.030

> <U+W>
-53.378

> <U>
9.048

> <W>
-62.426

> <W(PB)>
-64.506

> <W(SA)>
2.080

> <Valence>
2.652

> <Coulomb>
5.578

> <VdW>
0.818

> <VdW6>
-4.535

> <VdW12>
5.352

> <Bond>
0.063

> <Angle>
2.579

> <Pdih>
0.010

> <Idih>
0.000

> <Tether>
0.000

$$$$
VeraChem MOL file


 17 16  0  0  0  0  0  0  0  0999 V2000     
   23.0498   18.6112   22.3195 C   0  0  0  0  0  0  0  0  0  0  0  0
   23.3603   19.5620   23.0124 O   0  5  0  0  0  0  0  0  0  0  0  0
   23.7768   17.6514   22.1520 O   0  0  0  0  0  0  0  0  0  0  0  0
   21.7293   18.6011   21.6337 C   0  0  0  0  0  0  0  0  0  0  0  0
   21.5148   17.7227   21.0295 H   0  0  0  0  0  0  0  0  0  0  0  0
   20.8217   19.5990   21.7314 C   0  0  0  0  0  0  0  0  0  0  0  0
   21.0249   20.4821   22.3368 H   0  0  0  0  0  0  0  0  0  0  0  0
   19.4779   19.5800   21.0336 C   0  0  0  0  0  0  0  0  0  0  0  0
   19.5954   19.1753   20.0193 H   0  0  0  0  0  0  0  0  0  0  0  0
   19.1060   20.6063   20.9126 H   0  0  0  0  0  0  0  0  0  0  0  0
   18.4315   18.7382   21.7965 C   0  0  0  0  0  0  0  0  0  0  0  0
   17.5147   18.6734   21.1946 H   0  0  0  0  0  0  0  0  0  0  0  0
   18.8003   17.7103   21.9180 H   0  0  0  0  0  0  0  0  0  0  0  0
   18.0869   19.3336   23.1783 C   0  0  0  0  0  0  0  0  0  0  0  0
   17.7038   20.3577   23.0801 H   0  0  0  0  0  0  0  0  0  0  0  0
   17.3175   18.7304   23.6774 H   0  0  0  0  0  0  0  0  0  0  0  0
   18.9699   19.3589   23.8301 H   0  0  0  0  0  0  0  0  0  0  0  0
  1  2  1  0  0  0  0
  1  3  2  0  0  0  0
  1  4  1  0  0  0  0
  4  5  1  0  0  0  0
  4  6  2  0  0  0  0
  6  7  1  0  0  0  0
  6  8  1  0  0  0  0
  8  9  1  0  0  0  0
  8 10  1  0  0  0  0
  8 11  1  0  0  0  0
 11 12  1  0  0  0  0
 11 13  1  0  0  0  0
 11 14  1  0  0  0  0
 14 15  1  0  0  0  0
 14 16  1  0  0  0  0
 14 17  1  0  0  0  0
M  END
> <VConfSearch Rank>
687

> <Conf_Id>
3

> <Delta U+W>
0.531

> <U+W>
-52.878

> <U>
10.067

> <W>
-62.945

> <W(PB)>
-64.982

> <W(SA)>
2.037

> <Valence>
2.779

> <Coulomb>
6.474

> <VdW>
0.815

> <VdW6>
-5.088

> <VdW12>
5.902

> <Bond>
0.078

> <Angle>
2.651

> <Pdih>
0.050

> <Idih>
0.000

> <Tether>
0.000

$$$$
VeraChem MOL file


 17 16  0  0  0  0  0  0  0  0999 V2000     
   17.6261   20.7978   21.2354 C   0  0  0  0  0  0  0  0  0  0  0  0
   16.5026   20.4613   20.9155 O   0  5  0  0  0  0  0  0  0  0  0  0
   18.1064   21.8725   20.9275 O   0  0  0  0  0  0  0  0  0  0  0  0
   18.4281   19.8376   22.0410 C   0  0  0  0  0  0  0  0  0  0  0  0
   17.9391   18.8964   22.2812 H   0  0  0  0  0  0  0  0  0  0  0  0
   19.6902   20.0784   22.4635 C   0  0  0  0  0  0  0  0  0  0  0  0
   20.1890   21.0173   22.2241 H   0  0  0  0  0  0  0  0  0  0  0  0
   20.5051   19.0978   23.2812 C   0  0  0  0  0  0  0  0  0  0  0  0
   19.8544   18.3365   23.7326 H   0  0  0  0  0  0  0  0  0  0  0  0
   20.9753   19.6322   24.1174 H   0  0  0  0  0  0  0  0  0  0  0  0
   21.6058   18.4095   22.4446 C   0  0  0  0  0  0  0  0  0  0  0  0
   22.2557   19.1704   21.9905 H   0  0  0  0  0  0  0  0  0  0  0  0
   22.2418   17.8113   23.1116 H   0  0  0  0  0  0  0  0  0  0  0  0
   21.0297   17.4933   21.3439 C   0  0  0  0  0  0  0  0  0  0  0  0
   20.4390   18.0682   20.6189 H   0  0  0  0  0  0  0  0  0  0  0  0
   21.8384   16.9919   20.7966 H   0  0  0  0  0  0  0  0  0  0  0  0
   20.3822   16.7195   21.7764 H   0  0  0  0  0  0  0  0  0  0  0  0
  1  2  1  0  0  0  0
  1  3  2  0  0  0  0
  1  4  1  0  0  0  0
  4  5  1  0  0  0  0
  4  6  2  0  0  0  0
  6  7  1  0  0  0  0
  6  8  1  0  0  0  0
  8  9  1  0  0  0  0
  8 10  1  0  0  0  0
  8 11  1  0  0  0  0
 11 12  1  0  0  0  0
 11 13  1  0  0  0  0
 11 14  1  0  0  0  0
 14 15  1  0  0  0  0
 14 16  1  0  0  0  0
 14 17  1  0  0  0  0
M  END
> <VConfSearch Rank>
688

> <Conf_Id>
45

> <Delta U+W>
0.562

> <U+W>
-52.846

> <U>
10.243

> <W>
-63.089

> <W(PB)>
-65.116

> <W(SA)>
2.026

> <Valence>
2.822

> <Coulomb>
6.637

> <VdW>
0.785

> <VdW6>
-5.216

> <VdW12>
6.001

> <Bond>
0.080

> <Angle>
2.678

> <Pdih>
0.064

> <Idih>
0.000

> <Tether>
0.000

$$$$
VeraChem MOL file


 17 16  0  0  0  0  0  0  0  0999 V2000     
   22.6051   17.6852   23.4958 C   0  0  0  0  0  0  0  0  0  0  0  0
   23.5787   18.2081   24.0022 O   0  5  0  0  0  0  0  0  0  0  0  0
   22.5329   16.4893   23.2836 O   0  0  0  0  0  0  0  0  0  0  0  0
   21.4638   18.5669   23.1294 C   0  0  0  0  0  0  0  0  0  0  0  0
   21.5929   19.6249   23.3457 H   0  0  0  0  0  0  0  0  0  0  0  0
   20.3208   18.1224   22.5593 C   0  0  0  0  0  0  0  0  0  0  0  0
   20.1819   17.0648   22.3360 H   0  0  0  0  0  0  0  0  0  0  0  0
   19.1656   19.0262   22.1877 C   0  0  0  0  0  0  0  0  0  0  0  0
   19.0346   19.8025   22.9538 H   0  0  0  0  0  0  0  0  0  0  0  0
   18.2343   18.4442   22.1702 H   0  0  0  0  0  0  0  0  0  0  0  0
   19.3882   19.6855   20.8112 C   0  0  0  0  0  0  0  0  0  0  0  0
   20.3176   20.2716   20.8283 H   0  0  0  0  0  0  0  0  0  0  0  0
   19.5169   18.9070   20.0463 H   0  0  0  0  0  0  0  0  0  0  0  0
   18.2106   20.6011   20.4208 C   0  0  0  0  0  0  0  0  0  0  0  0
   17.2728   20.0329   20.3652 H   0  0  0  0  0  0  0  0  0  0  0  0
   18.0801   21.4075   21.1544 H   0  0  0  0  0  0  0  0  0  0  0  0
   18.3869   21.0608   19.4397 H   0  0  0  0  0  0  0  0  0  0  0  0
  1  2  1  0  0  0  0
  1  3  2  0  0  0  0
  1  4  1  0  0  0  0
  4  5  1  0  0  0  0
  4  6  2  0  0  0  0
  6  7  1  0  0  0  0
  6  8  1  0  0  0  0
  8  9  1  0  0  0  0
  8 10  1  0  0  0  0
  8 11  1  0  0  0  0
 11 12  1  0  0  0  0
 11 13  1  0  0  0  0
 11 14  1  0  0  0  0
 14 15  1  0  0  0  0
 14 16  1  0  0  0  0
 14 17  1  0  0  0  0
M  END
> <VConfSearch Rank>
689

> <Conf_Id>
36

> <Delta U+W>
0.000

> <U+W>
-53.409

> <U>
9.048

> <W>
-62.457

> <W(PB)>
-64.540

> <W(SA)>
2.084

> <Valence>
2.652

> <Coulomb>
5.578

> <VdW>
0.818

> <VdW6>
-4.534

> <VdW12>
5.352

> <Bond>
0.063

> <Angle>
2.579

> <Pdih>
0.010

> <Idih>
0.000

> <Tether>
0.000

$$$$
VeraChem MOL file


 17 16  0  0  0  0  0  0  0  0999 V2000     
   19.0380   16.3397   23.5997 C   0  0  0  0  0  0  0  0  0  0  0  0
   19.1866   16.5798   24.7832 O   0  5  0  0  0  0  0  0  0  0  0  0
   18.7910   15.2267   23.1779 O   0  0  0  0  0  0  0  0  0  0  0  0
   19.1577   17.4406   22.6058 C   0  0  0  0  0  0  0  0  0  0  0  0
   19.0136   17.1585   21.5653 H   0  0  0  0  0  0  0  0  0  0  0  0
   19.4296   18.7246   22.9323 C   0  0  0  0  0  0  0  0  0  0  0  0
   19.5780   19.0179   23.9714 H   0  0  0  0  0  0  0  0  0  0  0  0
   19.5515   19.8380   21.9151 C   0  0  0  0  0  0  0  0  0  0  0  0
   19.3320   20.8009   22.3956 H   0  0  0  0  0  0  0  0  0  0  0  0
   18.8022   19.7063   21.1226 H   0  0  0  0  0  0  0  0  0  0  0  0
   20.9631   19.8805   21.2949 C   0  0  0  0  0  0  0  0  0  0  0  0
   21.7105   20.0145   22.0893 H   0  0  0  0  0  0  0  0  0  0  0  0
   21.1827   18.9191   20.8101 H   0  0  0  0  0  0  0  0  0  0  0  0
   21.0983   21.0188   20.2636 C   0  0  0  0  0  0  0  0  0  0  0  0
   20.9146   21.9956   20.7300 H   0  0  0  0  0  0  0  0  0  0  0  0
   22.1083   21.0332   19.8337 H   0  0  0  0  0  0  0  0  0  0  0  0
   20.3819   20.8911   19.4414 H   0  0  0  0  0  0  0  0  0  0  0  0
  1  2  1  0  0  0  0
  1  3  2  0  0  0  0
  1  4  1  0  0  0  0
  4  5  1  0  0  0  0
  4  6  2  0  0  0  0
  6  7  1  0  0  0  0
  6  8  1  0  0  0  0
  8  9  1  0  0  0  0
  8 10  1  0  0  0  0
  8 11  1  0  0  0  0
 11 12  1  0  0  0  0
 11 13  1  0  0  0  0
 11 14  1  0  0  0  0
 14 15  1  0  0  0  0
 14 16  1  0  0  0  0
 14 17  1  0  0  0  0
M  END
> <VConfSearch Rank>
690

> <Conf_Id>
1

> <Delta U+W>
0.030

> <U+W>
-53.378

> <U>
9.048

> <W>
-62.426

> <W(PB)>
-64.506

> <W(SA)>
2.080

> <Valence>
2.652

> <Coulomb>
5.578

> <VdW>
0.818

> <VdW6>
-4.535

> <VdW12>
5.352

> <Bond>
0.063

> <Angle>
2.579

> <Pdih>
0.010

> <Idih>
0.000

> <Tether>
0.000

$$$$
VeraChem MOL file


 17 16  0  0  0  0  0  0  0  0999 V2000     
   20.2128   20.8487   24.5725 C   0  0  0  0  0  0  0  0  0  0  0  0
   19.9075   21.9311   24.1082 O   0  5  0  0  0  0  0  0  0  0  0  0
   20.2257   20.6230   25.7669 O   0  0  0  0  0  0  0  0  0  0  0  0
   20.5944   19.7379   23.6589 C   0  0  0  0  0  0  0  0  0  0  0  0
   20.8569   18.7977   24.1385 H   0  0  0  0  0  0  0  0  0  0  0  0
   20.6229   19.8465   22.3112 C   0  0  0  0  0  0  0  0  0  0  0  0
   20.3585   20.7828   21.8201 H   0  0  0  0  0  0  0  0  0  0  0  0
   21.0086   18.7103   21.3875 C   0  0  0  0  0  0  0  0  0  0  0  0
   21.8597   18.1620   21.8135 H   0  0  0  0  0  0  0  0  0  0  0  0
   21.3541   19.1125   20.4257 H   0  0  0  0  0  0  0  0  0  0  0  0
   19.8422   17.7269   21.1469 C   0  0  0  0  0  0  0  0  0  0  0  0
   20.2076   16.8730   20.5599 H   0  0  0  0  0  0  0  0  0  0  0  0
   19.4951   17.3217   22.1075 H   0  0  0  0  0  0  0  0  0  0  0  0
   18.6600   18.3824   20.4016 C   0  0  0  0  0  0  0  0  0  0  0  0
   18.9813   18.7838   19.4316 H   0  0  0  0  0  0  0  0  0  0  0  0
   17.8648   17.6484   20.2180 H   0  0  0  0  0  0  0  0  0  0  0  0
   18.2296   19.2051   20.9875 H   0  0  0  0  0  0  0  0  0  0  0  0
  1  2  1  0  0  0  0
  1  3  2  0  0  0  0
  1  4  1  0  0  0  0
  4  5  1  0  0  0  0
  4  6  2  0  0  0  0
  6  7  1  0  0  0  0
  6  8  1  0  0  0  0
  8  9  1  0  0  0  0
  8 10  1  0  0  0  0
  8 11  1  0  0  0  0
 11 12  1  0  0  0  0
 11 13  1  0  0  0  0
 11 14  1  0  0  0  0
 14 15  1  0  0  0  0
 14 16  1  0  0  0  0
 14 17  1  0  0  0  0
M  END
> <VConfSearch Rank>
691

> <Conf_Id>
3

> <Delta U+W>
0.531

> <U+W>
-52.878

> <U>
10.067

> <W>
-62.945

> <W(PB)>
-64.982

> <W(SA)>
2.037

> <Valence>
2.779

> <Coulomb>
6.474

> <VdW>
0.815

> <VdW6>
-5.088

> <VdW12>
5.902

> <Bond>
0.078

> <Angle>
2.651

> <Pdih>
0.050

> <Idih>
0.000

> <Tether>
0.000

$$$$
VeraChem MOL file


 17 16  0  0  0  0  0  0  0  0999 V2000     
   20.4639   19.4764   19.1204 C   0  0  0  0  0  0  0  0  0  0  0  0
   21.1006   20.3366   18.5438 O   0  5  0  0  0  0  0  0  0  0  0  0
   19.6077   18.8088   18.5712 O   0  0  0  0  0  0  0  0  0  0  0  0
   20.7652   19.2465   20.5593 C   0  0  0  0  0  0  0  0  0  0  0  0
   21.5409   19.8770   20.9876 H   0  0  0  0  0  0  0  0  0  0  0  0
   20.1344   18.3259   21.3236 C   0  0  0  0  0  0  0  0  0  0  0  0
   19.3535   17.6926   20.9033 H   0  0  0  0  0  0  0  0  0  0  0  0
   20.4415   18.0962   22.7889 C   0  0  0  0  0  0  0  0  0  0  0  0
   21.4141   18.5332   23.0531 H   0  0  0  0  0  0  0  0  0  0  0  0
   20.5322   17.0170   22.9711 H   0  0  0  0  0  0  0  0  0  0  0  0
   19.3462   18.6699   23.7143 C   0  0  0  0  0  0  0  0  0  0  0  0
   18.3725   18.2352   23.4490 H   0  0  0  0  0  0  0  0  0  0  0  0
   19.5548   18.3644   24.7489 H   0  0  0  0  0  0  0  0  0  0  0  0
   19.2628   20.2100   23.6519 C   0  0  0  0  0  0  0  0  0  0  0  0
   18.9917   20.5516   22.6445 H   0  0  0  0  0  0  0  0  0  0  0  0
   18.5025   20.5840   24.3497 H   0  0  0  0  0  0  0  0  0  0  0  0
   20.2242   20.6664   23.9212 H   0  0  0  0  0  0  0  0  0  0  0  0
  1  2  1  0  0  0  0
  1  3  2  0  0  0  0
  1  4  1  0  0  0  0
  4  5  1  0  0  0  0
  4  6  2  0  0  0  0
  6  7  1  0  0  0  0
  6  8  1  0  0  0  0
  8  9  1  0  0  0  0
  8 10  1  0  0  0  0
  8 11  1  0  0  0  0
 11 12  1  0  0  0  0
 11 13  1  0  0  0  0
 11 14  1  0  0  0  0
 14 15  1  0  0  0  0
 14 16  1  0  0  0  0
 14 17  1  0  0  0  0
M  END
> <VConfSearch Rank>
692

> <Conf_Id>
45

> <Delta U+W>
0.562

> <U+W>
-52.846

> <U>
10.243

> <W>
-63.089

> <W(PB)>
-65.116

> <W(SA)>
2.026

> <Valence>
2.822

> <Coulomb>
6.637

> <VdW>
0.785

> <VdW6>
-5.216

> <VdW12>
6.001

> <Bond>
0.080

> <Angle>
2.678

> <Pdih>
0.064

> <Idih>
0.000

> <Tether>
0.000

$$$$
VeraChem MOL file


 17 16  0  0  0  0  0  0  0  0999 V2000     
   20.5134   22.1799   20.5981 C   0  0  0  0  0  0  0  0  0  0  0  0
   19.7334   23.1026   20.4645 O   0  5  0  0  0  0  0  0  0  0  0  0
   21.5992   22.1481   20.0498 O   0  0  0  0  0  0  0  0  0  0  0  0
   20.1005   21.0522   21.4767 C   0  0  0  0  0  0  0  0  0  0  0  0
   19.1188   21.1432   21.9359 H   0  0  0  0  0  0  0  0  0  0  0  0
   20.8657   19.9627   21.7145 C   0  0  0  0  0  0  0  0  0  0  0  0
   21.8499   19.8602   21.2577 H   0  0  0  0  0  0  0  0  0  0  0  0
   20.4373   18.8191   22.6077 C   0  0  0  0  0  0  0  0  0  0  0  0
   19.8927   19.2070   23.4794 H   0  0  0  0  0  0  0  0  0  0  0  0
   21.3257   18.3046   22.9981 H   0  0  0  0  0  0  0  0  0  0  0  0
   19.5510   17.8126   21.8459 C   0  0  0  0  0  0  0  0  0  0  0  0
   18.6595   18.3250   21.4582 H   0  0  0  0  0  0  0  0  0  0  0  0
   20.0987   17.4245   20.9758 H   0  0  0  0  0  0  0  0  0  0  0  0
   19.1178   16.6388   22.7469 C   0  0  0  0  0  0  0  0  0  0  0  0
   19.9907   16.0891   23.1230 H   0  0  0  0  0  0  0  0  0  0  0  0
   18.5409   16.9977   23.6094 H   0  0  0  0  0  0  0  0  0  0  0  0
   18.4886   15.9339   22.1880 H   0  0  0  0  0  0  0  0  0  0  0  0
  1  2  1  0  0  0  0
  1  3  2  0  0  0  0
  1  4  1  0  0  0  0
  4  5  1  0  0  0  0
  4  6  2  0  0  0  0
  6  7  1  0  0  0  0
  6  8  1  0  0  0  0
  8  9  1  0  0  0  0
  8 10  1  0  0  0  0
  8 11  1  0  0  0  0
 11 12  1  0  0  0  0
 11 13  1  0  0  0  0
 11 14  1  0  0  0  0
 14 15  1  0  0  0  0
 14 16  1  0  0  0  0
 14 17  1  0  0  0  0
M  END
> <VConfSearch Rank>
693

> <Conf_Id>
36

> <Delta U+W>
0.000

> <U+W>
-53.409

> <U>
9.048

> <W>
-62.457

> <W(PB)>
-64.540

> <W(SA)>
2.084

> <Valence>
2.652

> <Coulomb>
5.578

> <VdW>
0.818

> <VdW6>
-4.534

> <VdW12>
5.352

> <Bond>
0.063

> <Angle>
2.579

> <Pdih>
0.010

> <Idih>
0.000

> <Tether>
0.000

$$$$
VeraChem MOL file


 17 16  0  0  0  0  0  0  0  0999 V2000     
   19.4194   22.0711   20.4452 C   0  0  0  0  0  0  0  0  0  0  0  0
   19.2673   21.8545   19.2576 O   0  5  0  0  0  0  0  0  0  0  0  0
   19.5383   23.1914   20.9018 O   0  0  0  0  0  0  0  0  0  0  0  0
   19.4637   20.9311   21.4004 C   0  0  0  0  0  0  0  0  0  0  0  0
   19.6019   21.1937   22.4468 H   0  0  0  0  0  0  0  0  0  0  0  0
   19.3460   19.6348   21.0329 C   0  0  0  0  0  0  0  0  0  0  0  0
   19.2095   19.3604   19.9871 H   0  0  0  0  0  0  0  0  0  0  0  0
   19.3940   18.4811   22.0106 C   0  0  0  0  0  0  0  0  0  0  0  0
   18.8569   17.6202   21.5903 H   0  0  0  0  0  0  0  0  0  0  0  0
   18.8718   18.7529   22.9381 H   0  0  0  0  0  0  0  0  0  0  0  0
   20.8475   18.0762   22.3311 C   0  0  0  0  0  0  0  0  0  0  0  0
   21.3670   17.8028   21.4022 H   0  0  0  0  0  0  0  0  0  0  0  0
   21.3852   18.9354   22.7556 H   0  0  0  0  0  0  0  0  0  0  0  0
   20.9049   16.8946   23.3200 C   0  0  0  0  0  0  0  0  0  0  0  0
   20.4012   16.0111   22.9064 H   0  0  0  0  0  0  0  0  0  0  0  0
   21.9460   16.6211   23.5357 H   0  0  0  0  0  0  0  0  0  0  0  0
   20.4188   17.1533   24.2699 H   0  0  0  0  0  0  0  0  0  0  0  0
  1  2  1  0  0  0  0
  1  3  2  0  0  0  0
  1  4  1  0  0  0  0
  4  5  1  0  0  0  0
  4  6  2  0  0  0  0
  6  7  1  0  0  0  0
  6  8  1  0  0  0  0
  8  9  1  0  0  0  0
  8 10  1  0  0  0  0
  8 11  1  0  0  0  0
 11 12  1  0  0  0  0
 11 13  1  0  0  0  0
 11 14  1  0  0  0  0
 14 15  1  0  0  0  0
 14 16  1  0  0  0  0
 14 17  1  0  0  0  0
M  END
> <VConfSearch Rank>
694

> <Conf_Id>
1

> <Delta U+W>
0.030

> <U+W>
-53.378

> <U>
9.048

> <W>
-62.426

> <W(PB)>
-64.506

> <W(SA)>
2.080

> <Valence>
2.652

> <Coulomb>
5.578

> <VdW>
0.818

> <VdW6>
-4.535

> <VdW12>
5.352

> <Bond>
0.063

> <Angle>
2.579

> <Pdih>
0.010

> <Idih>
0.000

> <Tether>
0.000

$$$$
VeraChem MOL file


 17 16  0  0  0  0  0  0  0  0999 V2000     
   21.5068   16.7770   20.6578 C   0  0  0  0  0  0  0  0  0  0  0  0
   21.6011   15.9896   21.5806 O   0  5  0  0  0  0  0  0  0  0  0  0
   21.6874   16.4594   19.4984 O   0  0  0  0  0  0  0  0  0  0  0  0
   21.1600   18.1971   20.9354 C   0  0  0  0  0  0  0  0  0  0  0  0
   21.0928   18.8479   20.0667 H   0  0  0  0  0  0  0  0  0  0  0  0
   20.9312   18.6887   22.1744 C   0  0  0  0  0  0  0  0  0  0  0  0
   20.9925   18.0448   23.0514 H   0  0  0  0  0  0  0  0  0  0  0  0
   20.5747   20.1346   22.4488 C   0  0  0  0  0  0  0  0  0  0  0  0
   21.1790   20.7909   21.8080 H   0  0  0  0  0  0  0  0  0  0  0  0
   20.8355   20.3929   23.4840 H   0  0  0  0  0  0  0  0  0  0  0  0
   19.0779   20.4273   22.2050 C   0  0  0  0  0  0  0  0  0  0  0  0
   18.9001   21.5058   22.3162 H   0  0  0  0  0  0  0  0  0  0  0  0
   18.8143   20.1710   21.1695 H   0  0  0  0  0  0  0  0  0  0  0  0
   18.1589   19.6612   23.1803 C   0  0  0  0  0  0  0  0  0  0  0  0
   18.3963   19.9118   24.2224 H   0  0  0  0  0  0  0  0  0  0  0  0
   17.1068   19.9179   23.0012 H   0  0  0  0  0  0  0  0  0  0  0  0
   18.2662   18.5758   23.0557 H   0  0  0  0  0  0  0  0  0  0  0  0
  1  2  1  0  0  0  0
  1  3  2  0  0  0  0
  1  4  1  0  0  0  0
  4  5  1  0  0  0  0
  4  6  2  0  0  0  0
  6  7  1  0  0  0  0
  6  8  1  0  0  0  0
  8  9  1  0  0  0  0
  8 10  1  0  0  0  0
  8 11  1  0  0  0  0
 11 12  1  0  0  0  0
 11 13  1  0  0  0  0
 11 14  1  0  0  0  0
 14 15  1  0  0  0  0
 14 16  1  0  0  0  0
 14 17  1  0  0  0  0
M  END
> <VConfSearch Rank>
695

> <Conf_Id>
3

> <Delta U+W>
0.531

> <U+W>
-52.878

> <U>
10.067

> <W>
-62.945

> <W(PB)>
-64.982

> <W(SA)>
2.037

> <Valence>
2.779

> <Coulomb>
6.474

> <VdW>
0.815

> <VdW6>
-5.088

> <VdW12>
5.902

> <Bond>
0.078

> <Angle>
2.651

> <Pdih>
0.050

> <Idih>
0.000

> <Tether>
0.000

$$$$
VeraChem MOL file


 17 16  0  0  0  0  0  0  0  0999 V2000     
   18.1964   21.3058   23.1157 C   0  0  0  0  0  0  0  0  0  0  0  0
   18.0071   22.4219   22.6725 O   0  5  0  0  0  0  0  0  0  0  0  0
   17.9630   21.0060   24.2716 O   0  0  0  0  0  0  0  0  0  0  0  0
   18.7343   20.2783   22.1836 C   0  0  0  0  0  0  0  0  0  0  0  0
   18.9203   20.6128   21.1657 H   0  0  0  0  0  0  0  0  0  0  0  0
   18.9946   18.9997   22.5403 C   0  0  0  0  0  0  0  0  0  0  0  0
   18.8146   18.6572   23.5590 H   0  0  0  0  0  0  0  0  0  0  0  0
   19.5448   17.9566   21.5898 C   0  0  0  0  0  0  0  0  0  0  0  0
   19.4110   18.2751   20.5470 H   0  0  0  0  0  0  0  0  0  0  0  0
   18.9674   17.0293   21.7022 H   0  0  0  0  0  0  0  0  0  0  0  0
   21.0361   17.6529   21.8523 C   0  0  0  0  0  0  0  0  0  0  0  0
   21.1712   17.3368   22.8960 H   0  0  0  0  0  0  0  0  0  0  0  0
   21.3451   16.8053   21.2252 H   0  0  0  0  0  0  0  0  0  0  0  0
   21.9499   18.8602   21.5519 C   0  0  0  0  0  0  0  0  0  0  0  0
   21.7129   19.7090   22.2065 H   0  0  0  0  0  0  0  0  0  0  0  0
   23.0033   18.5962   21.7117 H   0  0  0  0  0  0  0  0  0  0  0  0
   21.8367   19.1886   20.5106 H   0  0  0  0  0  0  0  0  0  0  0  0
  1  2  1  0  0  0  0
  1  3  2  0  0  0  0
  1  4  1  0  0  0  0
  4  5  1  0  0  0  0
  4  6  2  0  0  0  0
  6  7  1  0  0  0  0
  6  8  1  0  0  0  0
  8  9  1  0  0  0  0
  8 10  1  0  0  0  0
  8 11  1  0  0  0  0
 11 12  1  0  0  0  0
 11 13  1  0  0  0  0
 11 14  1  0  0  0  0
 14 15  1  0  0  0  0
 14 16  1  0  0  0  0
 14 17  1  0  0  0  0
M  END
> <VConfSearch Rank>
696

> <Conf_Id>
45

> <Delta U+W>
0.562

> <U+W>
-52.846

> <U>
10.243

> <W>
-63.089

> <W(PB)>
-65.116

> <W(SA)>
2.026

> <Valence>
2.822

> <Coulomb>
6.637

> <VdW>
0.785

> <VdW6>
-5.216

> <VdW12>
6.001

> <Bond>
0.080

> <Angle>
2.678

> <Pdih>
0.064

> <Idih>
0.000

> <Tether>
0.000

$$$$
VeraChem MOL file


 17 16  0  0  0  0  0  0  0  0999 V2000     
   19.3275   18.4622   25.1547 C   0  0  0  0  0  0  0  0  0  0  0  0
   19.4245   19.1910   26.1227 O   0  5  0  0  0  0  0  0  0  0  0  0
   19.1744   17.2587   25.2465 O   0  0  0  0  0  0  0  0  0  0  0  0
   19.4007   19.0931   23.8090 C   0  0  0  0  0  0  0  0  0  0  0  0
   19.5383   20.1719   23.7975 H   0  0  0  0  0  0  0  0  0  0  0  0
   19.3092   18.4054   22.6481 C   0  0  0  0  0  0  0  0  0  0  0  0
   19.1737   17.3240   22.6481 H   0  0  0  0  0  0  0  0  0  0  0  0
   19.3868   19.0544   21.2836 C   0  0  0  0  0  0  0  0  0  0  0  0
   18.8641   20.0206   21.2970 H   0  0  0  0  0  0  0  0  0  0  0  0
   18.8656   18.4273   20.5478 H   0  0  0  0  0  0  0  0  0  0  0  0
   20.8502   19.2604   20.8418 C   0  0  0  0  0  0  0  0  0  0  0  0
   21.3721   19.8912   21.5748 H   0  0  0  0  0  0  0  0  0  0  0  0
   21.3703   18.2925   20.8272 H   0  0  0  0  0  0  0  0  0  0  0  0
   20.9380   19.9130   19.4476 C   0  0  0  0  0  0  0  0  0  0  0  0
   20.4508   19.2864   18.6890 H   0  0  0  0  0  0  0  0  0  0  0  0
   20.4517   20.8974   19.4433 H   0  0  0  0  0  0  0  0  0  0  0  0
   21.9858   20.0515   19.1507 H   0  0  0  0  0  0  0  0  0  0  0  0
  1  2  1  0  0  0  0
  1  3  2  0  0  0  0
  1  4  1  0  0  0  0
  4  5  1  0  0  0  0
  4  6  2  0  0  0  0
  6  7  1  0  0  0  0
  6  8  1  0  0  0  0
  8  9  1  0  0  0  0
  8 10  1  0  0  0  0
  8 11  1  0  0  0  0
 11 12  1  0  0  0  0
 11 13  1  0  0  0  0
 11 14  1  0  0  0  0
 14 15  1  0  0  0  0
 14 16  1  0  0  0  0
 14 17  1  0  0  0  0
M  END
> <VConfSearch Rank>
697

> <Conf_Id>
36

> <Delta U+W>
0.000

> <U+W>
-53.409

> <U>
9.048

> <W>
-62.457

> <W(PB)>
-64.540

> <W(SA)>
2.084

> <Valence>
2.652

> <Coulomb>
5.578

> <VdW>
0.818

> <VdW6>
-4.534

> <VdW12>
5.352

> <Bond>
0.063

> <Angle>
2.579

> <Pdih>
0.010

> <Idih>
0.000

> <Tether>
0.000

$$$$
VeraChem MOL file


 17 16  0  0  0  0  0  0  0  0999 V2000     
   22.9931   20.2826   20.8702 C   0  0  0  0  0  0  0  0  0  0  0  0
   23.8486   19.7029   21.5123 O   0  5  0  0  0  0  0  0  0  0  0  0
   23.2338   21.2449   20.1675 O   0  0  0  0  0  0  0  0  0  0  0  0
   21.5831   19.8107   20.9302 C   0  0  0  0  0  0  0  0  0  0  0  0
   20.8687   20.3725   20.3328 H   0  0  0  0  0  0  0  0  0  0  0  0
   21.1724   18.7555   21.6697 C   0  0  0  0  0  0  0  0  0  0  0  0
   21.8793   18.1868   22.2736 H   0  0  0  0  0  0  0  0  0  0  0  0
   19.7361   18.2831   21.7267 C   0  0  0  0  0  0  0  0  0  0  0  0
   19.7094   17.2187   21.9965 H   0  0  0  0  0  0  0  0  0  0  0  0
   19.2740   18.3655   20.7335 H   0  0  0  0  0  0  0  0  0  0  0  0
   18.9175   19.0958   22.7506 C   0  0  0  0  0  0  0  0  0  0  0  0
   19.3804   19.0101   23.7436 H   0  0  0  0  0  0  0  0  0  0  0  0
   18.9398   20.1605   22.4799 H   0  0  0  0  0  0  0  0  0  0  0  0
   17.4544   18.6143   22.8214 C   0  0  0  0  0  0  0  0  0  0  0  0
   17.4019   17.5594   23.1215 H   0  0  0  0  0  0  0  0  0  0  0  0
   16.8883   19.2036   23.5545 H   0  0  0  0  0  0  0  0  0  0  0  0
   16.9589   18.7188   21.8473 H   0  0  0  0  0  0  0  0  0  0  0  0
  1  2  1  0  0  0  0
  1  3  2  0  0  0  0
  1  4  1  0  0  0  0
  4  5  1  0  0  0  0
  4  6  2  0  0  0  0
  6  7  1  0  0  0  0
  6  8  1  0  0  0  0
  8  9  1  0  0  0  0
  8 10  1  0  0  0  0
  8 11  1  0  0  0  0
 11 12  1  0  0  0  0
 11 13  1  0  0  0  0
 11 14  1  0  0  0  0
 14 15  1  0  0  0  0
 14 16  1  0  0  0  0
 14 17  1  0  0  0  0
M  END
> <VConfSearch Rank>
698

> <Conf_Id>
1

> <Delta U+W>
0.030

> <U+W>
-53.378

> <U>
9.048

> <W>
-62.426

> <W(PB)>
-64.506

> <W(SA)>
2.080

> <Valence>
2.652

> <Coulomb>
5.578

> <VdW>
0.818

> <VdW6>
-4.535

> <VdW12>
5.352

> <Bond>
0.063

> <Angle>
2.579

> <Pdih>
0.010

> <Idih>
0.000

> <Tether>
0.000

$$$$
VeraChem MOL file


 17 16  0  0  0  0  0  0  0  0999 V2000     
   20.1553   16.1421   22.9465 C   0  0  0  0  0  0  0  0  0  0  0  0
   21.3547   15.9490   22.8795 O   0  5  0  0  0  0  0  0  0  0  0  0
   19.3996   15.3991   23.5422 O   0  0  0  0  0  0  0  0  0  0  0  0
   19.5631   17.3307   22.2752 C   0  0  0  0  0  0  0  0  0  0  0  0
   18.4859   17.4436   22.3732 H   0  0  0  0  0  0  0  0  0  0  0  0
   20.2831   18.2401   21.5798 C   0  0  0  0  0  0  0  0  0  0  0  0
   21.3634   18.1384   21.4782 H   0  0  0  0  0  0  0  0  0  0  0  0
   19.6739   19.4496   20.9024 C   0  0  0  0  0  0  0  0  0  0  0  0
   18.7254   19.1664   20.4265 H   0  0  0  0  0  0  0  0  0  0  0  0
   20.3316   19.7944   20.0931 H   0  0  0  0  0  0  0  0  0  0  0  0
   19.4184   20.6095   21.8898 C   0  0  0  0  0  0  0  0  0  0  0  0
   18.8824   21.4141   21.3677 H   0  0  0  0  0  0  0  0  0  0  0  0
   18.7596   20.2679   22.7001 H   0  0  0  0  0  0  0  0  0  0  0  0
   20.7242   21.1774   22.4858 C   0  0  0  0  0  0  0  0  0  0  0  0
   21.3937   21.5370   21.6936 H   0  0  0  0  0  0  0  0  0  0  0  0
   20.5083   22.0199   23.1555 H   0  0  0  0  0  0  0  0  0  0  0  0
   21.2590   20.4146   23.0666 H   0  0  0  0  0  0  0  0  0  0  0  0
  1  2  1  0  0  0  0
  1  3  2  0  0  0  0
  1  4  1  0  0  0  0
  4  5  1  0  0  0  0
  4  6  2  0  0  0  0
  6  7  1  0  0  0  0
  6  8  1  0  0  0  0
  8  9  1  0  0  0  0
  8 10  1  0  0  0  0
  8 11  1  0  0  0  0
 11 12  1  0  0  0  0
 11 13  1  0  0  0  0
 11 14  1  0  0  0  0
 14 15  1  0  0  0  0
 14 16  1  0  0  0  0
 14 17  1  0  0  0  0
M  END
> <VConfSearch Rank>
699

> <Conf_Id>
3

> <Delta U+W>
0.531

> <U+W>
-52.878

> <U>
10.067

> <W>
-62.945

> <W(PB)>
-64.982

> <W(SA)>
2.037

> <Valence>
2.779

> <Coulomb>
6.474

> <VdW>
0.815

> <VdW6>
-5.088

> <VdW12>
5.902

> <Bond>
0.078

> <Angle>
2.651

> <Pdih>
0.050

> <Idih>
0.000

> <Tether>
0.000

$$$$
VeraChem MOL file


 17 16  0  0  0  0  0  0  0  0999 V2000     
   22.0868   21.0550   21.1584 C   0  0  0  0  0  0  0  0  0  0  0  0
   21.9955   22.2476   20.9413 O   0  5  0  0  0  0  0  0  0  0  0  0
   22.9771   20.3661   20.6967 O   0  0  0  0  0  0  0  0  0  0  0  0
   21.0546   20.4344   22.0322 C   0  0  0  0  0  0  0  0  0  0  0  0
   20.2881   21.1064   22.4109 H   0  0  0  0  0  0  0  0  0  0  0  0
   21.0315   19.1212   22.3554 C   0  0  0  0  0  0  0  0  0  0  0  0
   21.7936   18.4402   21.9773 H   0  0  0  0  0  0  0  0  0  0  0  0
   19.9778   18.4918   23.2430 C   0  0  0  0  0  0  0  0  0  0  0  0
   19.4459   19.2624   23.8175 H   0  0  0  0  0  0  0  0  0  0  0  0
   20.4708   17.8460   23.9819 H   0  0  0  0  0  0  0  0  0  0  0  0
   18.9621   17.6496   22.4403 C   0  0  0  0  0  0  0  0  0  0  0  0
   19.4935   16.8801   21.8633 H   0  0  0  0  0  0  0  0  0  0  0  0
   18.3042   17.1176   23.1413 H   0  0  0  0  0  0  0  0  0  0  0  0
   18.0976   18.5071   21.4916 C   0  0  0  0  0  0  0  0  0  0  0  0
   18.7162   19.0052   20.7337 H   0  0  0  0  0  0  0  0  0  0  0  0
   17.3628   17.8821   20.9681 H   0  0  0  0  0  0  0  0  0  0  0  0
   17.5509   19.2789   22.0488 H   0  0  0  0  0  0  0  0  0  0  0  0
  1  2  1  0  0  0  0
  1  3  2  0  0  0  0
  1  4  1  0  0  0  0
  4  5  1  0  0  0  0
  4  6  2  0  0  0  0
  6  7  1  0  0  0  0
  6  8  1  0  0  0  0
  8  9  1  0  0  0  0
  8 10  1  0  0  0  0
  8 11  1  0  0  0  0
 11 12  1  0  0  0  0
 11 13  1  0  0  0  0
 11 14  1  0  0  0  0
 14 15  1  0  0  0  0
 14 16  1  0  0  0  0
 14 17  1  0  0  0  0
M  END
> <VConfSearch Rank>
700

> <Conf_Id>
45

> <Delta U+W>
0.562

> <U+W>
-52.846

> <U>
10.243

> <W>
-63.089

> <W(PB)>
-65.116

> <W(SA)>
2.026

> <Valence>
2.822

> <Coulomb>
6.637

> <VdW>
0.785

> <VdW6>
-5.216

> <VdW12>
6.001

> <Bond>
0.080

> <Angle>
2.678

> <Pdih>
0.064

> <Idih>
0.000

> <Tether>
0.000

$$$$
VeraChem MOL file


 17 16  0  0  0  0  0  0  0  0999 V2000     
   16.8642   20.1930   22.5704 C   0  0  0  0  0  0  0  0  0  0  0  0
   16.3789   21.2952   22.4054 O   0  5  0  0  0  0  0  0  0  0  0  0
   16.3260   19.3268   23.2341 O   0  0  0  0  0  0  0  0  0  0  0  0
   18.1738   19.9141   21.9211 C   0  0  0  0  0  0  0  0  0  0  0  0
   18.6001   20.7305   21.3426 H   0  0  0  0  0  0  0  0  0  0  0  0
   18.8283   18.7348   22.0204 C   0  0  0  0  0  0  0  0  0  0  0  0
   18.4114   17.9110   22.5994 H   0  0  0  0  0  0  0  0  0  0  0  0
   20.1609   18.4601   21.3587 C   0  0  0  0  0  0  0  0  0  0  0  0
   20.1911   18.9293   20.3658 H   0  0  0  0  0  0  0  0  0  0  0  0
   20.2757   17.3797   21.1974 H   0  0  0  0  0  0  0  0  0  0  0  0
   21.3322   18.9812   22.2164 C   0  0  0  0  0  0  0  0  0  0  0  0
   21.2211   20.0629   22.3752 H   0  0  0  0  0  0  0  0  0  0  0  0
   21.3011   18.5090   23.2082 H   0  0  0  0  0  0  0  0  0  0  0  0
   22.6948   18.6966   21.5532 C   0  0  0  0  0  0  0  0  0  0  0  0
   22.8455   17.6183   21.4118 H   0  0  0  0  0  0  0  0  0  0  0  0
   22.7636   19.1842   20.5719 H   0  0  0  0  0  0  0  0  0  0  0  0
   23.5151   19.0743   22.1774 H   0  0  0  0  0  0  0  0  0  0  0  0
  1  2  1  0  0  0  0
  1  3  2  0  0  0  0
  1  4  1  0  0  0  0
  4  5  1  0  0  0  0
  4  6  2  0  0  0  0
  6  7  1  0  0  0  0
  6  8  1  0  0  0  0
  8  9  1  0  0  0  0
  8 10  1  0  0  0  0
  8 11  1  0  0  0  0
 11 12  1  0  0  0  0
 11 13  1  0  0  0  0
 11 14  1  0  0  0  0
 14 15  1  0  0  0  0
 14 16  1  0  0  0  0
 14 17  1  0  0  0  0
M  END
> <VConfSearch Rank>
701

> <Conf_Id>
36

> <Delta U+W>
0.000

> <U+W>
-53.409

> <U>
9.048

> <W>
-62.457

> <W(PB)>
-64.540

> <W(SA)>
2.084

> <Valence>
2.652

> <Coulomb>
5.578

> <VdW>
0.818

> <VdW6>
-4.534

> <VdW12>
5.352

> <Bond>
0.063

> <Angle>
2.579

> <Pdih>
0.010

> <Idih>
0.000

> <Tether>
0.000

$$$$
VeraChem MOL file


 17 16  0  0  0  0  0  0  0  0999 V2000     
   16.6720   19.2466   22.3433 C   0  0  0  0  0  0  0  0  0  0  0  0
   16.2268   18.1565   22.0371 O   0  5  0  0  0  0  0  0  0  0  0  0
   15.9657   20.2156   22.5431 O   0  0  0  0  0  0  0  0  0  0  0  0
   18.1422   19.4260   22.4871 C   0  0  0  0  0  0  0  0  0  0  0  0
   18.4737   20.4245   22.7627 H   0  0  0  0  0  0  0  0  0  0  0  0
   19.0446   18.4373   22.2943 C   0  0  0  0  0  0  0  0  0  0  0  0
   18.7235   17.4337   22.0159 H   0  0  0  0  0  0  0  0  0  0  0  0
   20.5383   18.6286   22.4408 C   0  0  0  0  0  0  0  0  0  0  0  0
   21.0112   17.6655   22.6759 H   0  0  0  0  0  0  0  0  0  0  0  0
   20.7502   19.2957   23.2874 H   0  0  0  0  0  0  0  0  0  0  0  0
   21.1595   19.2080   21.1534 C   0  0  0  0  0  0  0  0  0  0  0  0
   20.9481   18.5379   20.3084 H   0  0  0  0  0  0  0  0  0  0  0  0
   20.6903   20.1736   20.9190 H   0  0  0  0  0  0  0  0  0  0  0  0
   22.6835   19.3973   21.2913 C   0  0  0  0  0  0  0  0  0  0  0  0
   23.1816   18.4403   21.4948 H   0  0  0  0  0  0  0  0  0  0  0  0
   23.1073   19.8099   20.3665 H   0  0  0  0  0  0  0  0  0  0  0  0
   22.9209   20.0886   22.1107 H   0  0  0  0  0  0  0  0  0  0  0  0
  1  2  1  0  0  0  0
  1  3  2  0  0  0  0
  1  4  1  0  0  0  0
  4  5  1  0  0  0  0
  4  6  2  0  0  0  0
  6  7  1  0  0  0  0
  6  8  1  0  0  0  0
  8  9  1  0  0  0  0
  8 10  1  0  0  0  0
  8 11  1  0  0  0  0
 11 12  1  0  0  0  0
 11 13  1  0  0  0  0
 11 14  1  0  0  0  0
 14 15  1  0  0  0  0
 14 16  1  0  0  0  0
 14 17  1  0  0  0  0
M  END
> <VConfSearch Rank>
702

> <Conf_Id>
1

> <Delta U+W>
0.030

> <U+W>
-53.378

> <U>
9.048

> <W>
-62.426

> <W(PB)>
-64.506

> <W(SA)>
2.080

> <Valence>
2.652

> <Coulomb>
5.578

> <VdW>
0.818

> <VdW6>
-4.535

> <VdW12>
5.352

> <Bond>
0.063

> <Angle>
2.579

> <Pdih>
0.010

> <Idih>
0.000

> <Tether>
0.000

$$$$
VeraChem MOL file


 17 16  0  0  0  0  0  0  0  0999 V2000     
   19.3199   21.9036   21.0079 C   0  0  0  0  0  0  0  0  0  0  0  0
   20.1662   22.0326   20.1433 O   0  5  0  0  0  0  0  0  0  0  0  0
   18.3400   22.6189   21.0840 O   0  0  0  0  0  0  0  0  0  0  0  0
   19.4703   20.8329   22.0302 C   0  0  0  0  0  0  0  0  0  0  0  0
   18.6797   20.7728   22.7746 H   0  0  0  0  0  0  0  0  0  0  0  0
   20.5073   19.9655   22.0661 C   0  0  0  0  0  0  0  0  0  0  0  0
   21.3031   20.0146   21.3232 H   0  0  0  0  0  0  0  0  0  0  0  0
   20.6517   18.8757   23.1075 C   0  0  0  0  0  0  0  0  0  0  0  0
   20.3551   19.2645   24.0911 H   0  0  0  0  0  0  0  0  0  0  0  0
   21.7068   18.5846   23.1988 H   0  0  0  0  0  0  0  0  0  0  0  0
   19.7993   17.6307   22.7773 C   0  0  0  0  0  0  0  0  0  0  0  0
   19.8604   16.9214   23.6141 H   0  0  0  0  0  0  0  0  0  0  0  0
   18.7428   17.9186   22.6865 H   0  0  0  0  0  0  0  0  0  0  0  0
   20.2590   16.9254   21.4835 C   0  0  0  0  0  0  0  0  0  0  0  0
   21.3100   16.6171   21.5565 H   0  0  0  0  0  0  0  0  0  0  0  0
   19.6547   16.0281   21.2976 H   0  0  0  0  0  0  0  0  0  0  0  0
   20.1553   17.5869   20.6135 H   0  0  0  0  0  0  0  0  0  0  0  0
  1  2  1  0  0  0  0
  1  3  2  0  0  0  0
  1  4  1  0  0  0  0
  4  5  1  0  0  0  0
  4  6  2  0  0  0  0
  6  7  1  0  0  0  0
  6  8  1  0  0  0  0
  8  9  1  0  0  0  0
  8 10  1  0  0  0  0
  8 11  1  0  0  0  0
 11 12  1  0  0  0  0
 11 13  1  0  0  0  0
 11 14  1  0  0  0  0
 14 15  1  0  0  0  0
 14 16  1  0  0  0  0
 14 17  1  0  0  0  0
M  END
> <VConfSearch Rank>
703

> <Conf_Id>
3

> <Delta U+W>
0.531

> <U+W>
-52.878

> <U>
10.067

> <W>
-62.945

> <W(PB)>
-64.982

> <W(SA)>
2.037

> <Valence>
2.779

> <Coulomb>
6.474

> <VdW>
0.815

> <VdW6>
-5.088

> <VdW12>
5.902

> <Bond>
0.078

> <Angle>
2.651

> <Pdih>
0.050

> <Idih>
0.000

> <Tether>
0.000

$$$$
VeraChem MOL file


 17 16  0  0  0  0  0  0  0  0999 V2000     
   22.1205   20.7608   20.7484 C   0  0  0  0  0  0  0  0  0  0  0  0
   22.3638   20.9100   19.5668 O   0  5  0  0  0  0  0  0  0  0  0  0
   22.9357   20.9837   21.6238 O   0  0  0  0  0  0  0  0  0  0  0  0
   20.7584   20.2871   21.1153 C   0  0  0  0  0  0  0  0  0  0  0  0
   20.0796   20.1073   20.2849 H   0  0  0  0  0  0  0  0  0  0  0  0
   20.3514   20.0758   22.3878 C   0  0  0  0  0  0  0  0  0  0  0  0
   21.0262   20.2500   23.2255 H   0  0  0  0  0  0  0  0  0  0  0  0
   18.9650   19.5909   22.7579 C   0  0  0  0  0  0  0  0  0  0  0  0
   18.2696   19.7317   21.9192 H   0  0  0  0  0  0  0  0  0  0  0  0
   18.5782   20.2059   23.5815 H   0  0  0  0  0  0  0  0  0  0  0  0
   18.9591   18.1093   23.1937 C   0  0  0  0  0  0  0  0  0  0  0  0
   19.6564   17.9671   24.0310 H   0  0  0  0  0  0  0  0  0  0  0  0
   17.9599   17.8503   23.5701 H   0  0  0  0  0  0  0  0  0  0  0  0
   19.3268   17.1499   22.0417 C   0  0  0  0  0  0  0  0  0  0  0  0
   20.3467   17.3363   21.6812 H   0  0  0  0  0  0  0  0  0  0  0  0
   19.2743   16.1060   22.3771 H   0  0  0  0  0  0  0  0  0  0  0  0
   18.6373   17.2696   21.1960 H   0  0  0  0  0  0  0  0  0  0  0  0
  1  2  1  0  0  0  0
  1  3  2  0  0  0  0
  1  4  1  0  0  0  0
  4  5  1  0  0  0  0
  4  6  2  0  0  0  0
  6  7  1  0  0  0  0
  6  8  1  0  0  0  0
  8  9  1  0  0  0  0
  8 10  1  0  0  0  0
  8 11  1  0  0  0  0
 11 12  1  0  0  0  0
 11 13  1  0  0  0  0
 11 14  1  0  0  0  0
 14 15  1  0  0  0  0
 14 16  1  0  0  0  0
 14 17  1  0  0  0  0
M  END
> <VConfSearch Rank>
704

> <Conf_Id>
45

> <Delta U+W>
0.562

> <U+W>
-52.846

> <U>
10.243

> <W>
-63.089

> <W(PB)>
-65.116

> <W(SA)>
2.026

> <Valence>
2.822

> <Coulomb>
6.637

> <VdW>
0.785

> <VdW6>
-5.216

> <VdW12>
6.001

> <Bond>
0.080

> <Angle>
2.678

> <Pdih>
0.064

> <Idih>
0.000

> <Tether>
0.000

$$$$
VeraChem MOL file


 17 16  0  0  0  0  0  0  0  0999 V2000     
   18.5415   19.4026   24.9449 C   0  0  0  0  0  0  0  0  0  0  0  0
   18.7250   18.7450   25.9507 O   0  5  0  0  0  0  0  0  0  0  0  0
   17.5996   20.1617   24.8146 O   0  0  0  0  0  0  0  0  0  0  0  0
   19.5262   19.2566   23.8389 C   0  0  0  0  0  0  0  0  0  0  0  0
   20.3437   18.5624   24.0198 H   0  0  0  0  0  0  0  0  0  0  0  0
   19.4460   19.9241   22.6654 C   0  0  0  0  0  0  0  0  0  0  0  0
   18.6298   20.6202   22.4727 H   0  0  0  0  0  0  0  0  0  0  0  0
   20.4506   19.7683   21.5448 C   0  0  0  0  0  0  0  0  0  0  0  0
   21.4634   19.6713   21.9591 H   0  0  0  0  0  0  0  0  0  0  0  0
   20.4524   20.6743   20.9239 H   0  0  0  0  0  0  0  0  0  0  0  0
   20.1275   18.5417   20.6671 C   0  0  0  0  0  0  0  0  0  0  0  0
   20.1294   17.6338   21.2861 H   0  0  0  0  0  0  0  0  0  0  0  0
   19.1149   18.6420   20.2522 H   0  0  0  0  0  0  0  0  0  0  0  0
   21.1416   18.3813   19.5167 C   0  0  0  0  0  0  0  0  0  0  0  0
   21.1371   19.2635   18.8630 H   0  0  0  0  0  0  0  0  0  0  0  0
   22.1595   18.2480   19.9060 H   0  0  0  0  0  0  0  0  0  0  0  0
   20.8957   17.5043   18.9038 H   0  0  0  0  0  0  0  0  0  0  0  0
  1  2  1  0  0  0  0
  1  3  2  0  0  0  0
  1  4  1  0  0  0  0
  4  5  1  0  0  0  0
  4  6  2  0  0  0  0
  6  7  1  0  0  0  0
  6  8  1  0  0  0  0
  8  9  1  0  0  0  0
  8 10  1  0  0  0  0
  8 11  1  0  0  0  0
 11 12  1  0  0  0  0
 11 13  1  0  0  0  0
 11 14  1  0  0  0  0
 14 15  1  0  0  0  0
 14 16  1  0  0  0  0
 14 17  1  0  0  0  0
M  END
> <VConfSearch Rank>
705

> <Conf_Id>
36

> <Delta U+W>
0.000

> <U+W>
-53.409

> <U>
9.048

> <W>
-62.457

> <W(PB)>
-64.540

> <W(SA)>
2.084

> <Valence>
2.652

> <Coulomb>
5.578

> <VdW>
0.818

> <VdW6>
-4.534

> <VdW12>
5.352

> <Bond>
0.063

> <Angle>
2.579

> <Pdih>
0.010

> <Idih>
0.000

> <Tether>
0.000

$$$$
VeraChem MOL file


 17 16  0  0  0  0  0  0  0  0999 V2000     
   17.2069   17.5389   20.8740 C   0  0  0  0  0  0  0  0  0  0  0  0
   17.3946   17.2078   19.7183 O   0  5  0  0  0  0  0  0  0  0  0  0
   16.1165   17.4815   21.4082 O   0  0  0  0  0  0  0  0  0  0  0  0
   18.3468   18.0379   21.6899 C   0  0  0  0  0  0  0  0  0  0  0  0
   18.1110   18.3168   22.7143 H   0  0  0  0  0  0  0  0  0  0  0  0
   19.6116   18.1553   21.2255 C   0  0  0  0  0  0  0  0  0  0  0  0
   19.8585   17.8808   20.2001 H   0  0  0  0  0  0  0  0  0  0  0  0
   20.7650   18.6655   22.0614 C   0  0  0  0  0  0  0  0  0  0  0  0
   21.7100   18.2716   21.6638 H   0  0  0  0  0  0  0  0  0  0  0  0
   20.6781   18.2901   23.0902 H   0  0  0  0  0  0  0  0  0  0  0  0
   20.8124   20.2072   22.0722 C   0  0  0  0  0  0  0  0  0  0  0  0
   20.9014   20.5802   21.0424 H   0  0  0  0  0  0  0  0  0  0  0  0
   19.8691   20.6030   22.4736 H   0  0  0  0  0  0  0  0  0  0  0  0
   21.9909   20.7352   22.9146 C   0  0  0  0  0  0  0  0  0  0  0  0
   22.9498   20.3796   22.5153 H   0  0  0  0  0  0  0  0  0  0  0  0
   22.0082   21.8328   22.9104 H   0  0  0  0  0  0  0  0  0  0  0  0
   21.9089   20.4016   23.9575 H   0  0  0  0  0  0  0  0  0  0  0  0
  1  2  1  0  0  0  0
  1  3  2  0  0  0  0
  1  4  1  0  0  0  0
  4  5  1  0  0  0  0
  4  6  2  0  0  0  0
  6  7  1  0  0  0  0
  6  8  1  0  0  0  0
  8  9  1  0  0  0  0
  8 10  1  0  0  0  0
  8 11  1  0  0  0  0
 11 12  1  0  0  0  0
 11 13  1  0  0  0  0
 11 14  1  0  0  0  0
 14 15  1  0  0  0  0
 14 16  1  0  0  0  0
 14 17  1  0  0  0  0
M  END
> <VConfSearch Rank>
706

> <Conf_Id>
1

> <Delta U+W>
0.030

> <U+W>
-53.378

> <U>
9.048

> <W>
-62.426

> <W(PB)>
-64.506

> <W(SA)>
2.080

> <Valence>
2.652

> <Coulomb>
5.578

> <VdW>
0.818

> <VdW6>
-4.535

> <VdW12>
5.352

> <Bond>
0.063

> <Angle>
2.579

> <Pdih>
0.010

> <Idih>
0.000

> <Tether>
0.000

$$$$
VeraChem MOL file


 17 16  0  0  0  0  0  0  0  0999 V2000     
   17.2494   17.8525   22.6133 C   0  0  0  0  0  0  0  0  0  0  0  0
   16.5703   18.4599   21.8068 O   0  5  0  0  0  0  0  0  0  0  0  0
   16.8683   16.8395   23.1668 O   0  0  0  0  0  0  0  0  0  0  0  0
   18.6079   18.3536   22.9561 C   0  0  0  0  0  0  0  0  0  0  0  0
   19.1613   17.7648   23.6840 H   0  0  0  0  0  0  0  0  0  0  0  0
   19.1595   19.4647   22.4174 C   0  0  0  0  0  0  0  0  0  0  0  0
   18.6152   20.0601   21.6847 H   0  0  0  0  0  0  0  0  0  0  0  0
   20.5444   19.9664   22.7683 C   0  0  0  0  0  0  0  0  0  0  0  0
   20.7128   19.8579   23.8483 H   0  0  0  0  0  0  0  0  0  0  0  0
   20.6172   21.0411   22.5536 H   0  0  0  0  0  0  0  0  0  0  0  0
   21.6542   19.2110   22.0045 C   0  0  0  0  0  0  0  0  0  0  0  0
   22.6342   19.5419   22.3749 H   0  0  0  0  0  0  0  0  0  0  0  0
   21.5847   18.1354   22.2184 H   0  0  0  0  0  0  0  0  0  0  0  0
   21.5863   19.4434   20.4800 C   0  0  0  0  0  0  0  0  0  0  0  0
   21.6666   20.5120   20.2417 H   0  0  0  0  0  0  0  0  0  0  0  0
   22.4075   18.9204   19.9730 H   0  0  0  0  0  0  0  0  0  0  0  0
   20.6417   19.0694   20.0640 H   0  0  0  0  0  0  0  0  0  0  0  0
  1  2  1  0  0  0  0
  1  3  2  0  0  0  0
  1  4  1  0  0  0  0
  4  5  1  0  0  0  0
  4  6  2  0  0  0  0
  6  7  1  0  0  0  0
  6  8  1  0  0  0  0
  8  9  1  0  0  0  0
  8 10  1  0  0  0  0
  8 11  1  0  0  0  0
 11 12  1  0  0  0  0
 11 13  1  0  0  0  0
 11 14  1  0  0  0  0
 14 15  1  0  0  0  0
 14 16  1  0  0  0  0
 14 17  1  0  0  0  0
M  END
> <VConfSearch Rank>
707

> <Conf_Id>
3

> <Delta U+W>
0.531

> <U+W>
-52.878

> <U>
10.067

> <W>
-62.945

> <W(PB)>
-64.982

> <W(SA)>
2.037

> <Valence>
2.779

> <Coulomb>
6.474

> <VdW>
0.815

> <VdW6>
-5.088

> <VdW12>
5.902

> <Bond>
0.078

> <Angle>
2.651

> <Pdih>
0.050

> <Idih>
0.000

> <Tether>
0.000

$$$$
VeraChem MOL file


 17 16  0  0  0  0  0  0  0  0999 V2000     
   18.3628   20.8543   23.9295 C   0  0  0  0  0  0  0  0  0  0  0  0
   18.7243   21.7786   24.6314 O   0  5  0  0  0  0  0  0  0  0  0  0
   17.3293   20.2423   24.1242 O   0  0  0  0  0  0  0  0  0  0  0  0
   19.2376   20.4757   22.7870 C   0  0  0  0  0  0  0  0  0  0  0  0
   20.1453   21.0631   22.6702 H   0  0  0  0  0  0  0  0  0  0  0  0
   18.9611   19.4683   21.9277 C   0  0  0  0  0  0  0  0  0  0  0  0
   18.0556   18.8724   22.0396 H   0  0  0  0  0  0  0  0  0  0  0  0
   19.8551   19.0835   20.7671 C   0  0  0  0  0  0  0  0  0  0  0  0
   20.5607   19.8935   20.5377 H   0  0  0  0  0  0  0  0  0  0  0  0
   19.2384   18.9521   19.8679 H   0  0  0  0  0  0  0  0  0  0  0  0
   20.6341   17.7772   21.0353 C   0  0  0  0  0  0  0  0  0  0  0  0
   19.9291   16.9669   21.2674 H   0  0  0  0  0  0  0  0  0  0  0  0
   21.1625   17.4804   20.1188 H   0  0  0  0  0  0  0  0  0  0  0  0
   21.6577   17.9208   22.1818 C   0  0  0  0  0  0  0  0  0  0  0  0
   21.1587   18.1546   23.1313 H   0  0  0  0  0  0  0  0  0  0  0  0
   22.2187   16.9872   22.3177 H   0  0  0  0  0  0  0  0  0  0  0  0
   22.3778   18.7211   21.9672 H   0  0  0  0  0  0  0  0  0  0  0  0
  1  2  1  0  0  0  0
  1  3  2  0  0  0  0
  1  4  1  0  0  0  0
  4  5  1  0  0  0  0
  4  6  2  0  0  0  0
  6  7  1  0  0  0  0
  6  8  1  0  0  0  0
  8  9  1  0  0  0  0
  8 10  1  0  0  0  0
  8 11  1  0  0  0  0
 11 12  1  0  0  0  0
 11 13  1  0  0  0  0
 11 14  1  0  0  0  0
 14 15  1  0  0  0  0
 14 16  1  0  0  0  0
 14 17  1  0  0  0  0
M  END
> <VConfSearch Rank>
708

> <Conf_Id>
45

> <Delta U+W>
0.562

> <U+W>
-52.846

> <U>
10.243

> <W>
-63.089

> <W(PB)>
-65.116

> <W(SA)>
2.026

> <Valence>
2.822

> <Coulomb>
6.637

> <VdW>
0.785

> <VdW6>
-5.216

> <VdW12>
6.001

> <Bond>
0.080

> <Angle>
2.678

> <Pdih>
0.064

> <Idih>
0.000

> <Tether>
0.000

$$$$
VeraChem MOL file


 17 16  0  0  0  0  0  0  0  0999 V2000     
   23.0066   18.1399   23.0715 C   0  0  0  0  0  0  0  0  0  0  0  0
   23.4617   17.0180   23.1811 O   0  5  0  0  0  0  0  0  0  0  0  0
   23.5163   19.1135   23.5938 O   0  0  0  0  0  0  0  0  0  0  0  0
   21.7723   18.3046   22.2569 C   0  0  0  0  0  0  0  0  0  0  0  0
   21.3683   17.3950   21.8182 H   0  0  0  0  0  0  0  0  0  0  0  0
   21.1577   19.4916   22.0514 C   0  0  0  0  0  0  0  0  0  0  0  0
   21.5526   20.4087   22.4881 H   0  0  0  0  0  0  0  0  0  0  0  0
   19.9014   19.6501   21.2232 C   0  0  0  0  0  0  0  0  0  0  0  0
   19.9423   18.9873   20.3481 H   0  0  0  0  0  0  0  0  0  0  0  0
   19.8435   20.6762   20.8356 H   0  0  0  0  0  0  0  0  0  0  0  0
   18.6387   19.3398   22.0528 C   0  0  0  0  0  0  0  0  0  0  0  0
   18.6931   18.3120   22.4379 H   0  0  0  0  0  0  0  0  0  0  0  0
   18.5989   20.0053   22.9263 H   0  0  0  0  0  0  0  0  0  0  0  0
   17.3530   19.5082   21.2183 C   0  0  0  0  0  0  0  0  0  0  0  0
   17.2576   20.5370   20.8470 H   0  0  0  0  0  0  0  0  0  0  0  0
   17.3537   18.8305   20.3546 H   0  0  0  0  0  0  0  0  0  0  0  0
   16.4661   19.2833   21.8248 H   0  0  0  0  0  0  0  0  0  0  0  0
  1  2  1  0  0  0  0
  1  3  2  0  0  0  0
  1  4  1  0  0  0  0
  4  5  1  0  0  0  0
  4  6  2  0  0  0  0
  6  7  1  0  0  0  0
  6  8  1  0  0  0  0
  8  9  1  0  0  0  0
  8 10  1  0  0  0  0
  8 11  1  0  0  0  0
 11 12  1  0  0  0  0
 11 13  1  0  0  0  0
 11 14  1  0  0  0  0
 14 15  1  0  0  0  0
 14 16  1  0  0  0  0
 14 17  1  0  0  0  0
M  END
> <VConfSearch Rank>
709

> <Conf_Id>
36

> <Delta U+W>
0.000

> <U+W>
-53.409

> <U>
9.048

> <W>
-62.457

> <W(PB)>
-64.540

> <W(SA)>
2.084

> <Valence>
2.652

> <Coulomb>
5.578

> <VdW>
0.818

> <VdW6>
-4.534

> <VdW12>
5.352

> <Bond>
0.063

> <Angle>
2.579

> <Pdih>
0.010

> <Idih>
0.000

> <Tether>
0.000

$$$$
VeraChem MOL file


 17 16  0  0  0  0  0  0  0  0999 V2000     
   22.6788   20.7896   20.7307 C   0  0  0  0  0  0  0  0  0  0  0  0
   22.4294   21.0764   19.5748 O   0  5  0  0  0  0  0  0  0  0  0  0
   23.7818   20.9294   21.2221 O   0  0  0  0  0  0  0  0  0  0  0  0
   21.6024   20.2435   21.6010 C   0  0  0  0  0  0  0  0  0  0  0  0
   21.8918   20.0082   22.6227 H   0  0  0  0  0  0  0  0  0  0  0  0
   20.3318   20.0350   21.1874 C   0  0  0  0  0  0  0  0  0  0  0  0
   20.0316   20.2652   20.1653 H   0  0  0  0  0  0  0  0  0  0  0  0
   19.2435   19.4775   22.0785 C   0  0  0  0  0  0  0  0  0  0  0  0
   18.2619   19.8009   21.7066 H   0  0  0  0  0  0  0  0  0  0  0  0
   19.3432   19.8859   23.0935 H   0  0  0  0  0  0  0  0  0  0  0  0
   19.2938   17.9368   22.1301 C   0  0  0  0  0  0  0  0  0  0  0  0
   19.1917   17.5306   21.1141 H   0  0  0  0  0  0  0  0  0  0  0  0
   20.2739   17.6115   22.5059 H   0  0  0  0  0  0  0  0  0  0  0  0
   18.1818   17.3601   23.0292 C   0  0  0  0  0  0  0  0  0  0  0  0
   17.1887   17.6443   22.6571 H   0  0  0  0  0  0  0  0  0  0  0  0
   18.2335   16.2638   23.0534 H   0  0  0  0  0  0  0  0  0  0  0  0
   18.2798   17.7268   24.0594 H   0  0  0  0  0  0  0  0  0  0  0  0
  1  2  1  0  0  0  0
  1  3  2  0  0  0  0
  1  4  1  0  0  0  0
  4  5  1  0  0  0  0
  4  6  2  0  0  0  0
  6  7  1  0  0  0  0
  6  8  1  0  0  0  0
  8  9  1  0  0  0  0
  8 10  1  0  0  0  0
  8 11  1  0  0  0  0
 11 12  1  0  0  0  0
 11 13  1  0  0  0  0
 11 14  1  0  0  0  0
 14 15  1  0  0  0  0
 14 16  1  0  0  0  0
 14 17  1  0  0  0  0
M  END
> <VConfSearch Rank>
710

> <Conf_Id>
1

> <Delta U+W>
0.030

> <U+W>
-53.378

> <U>
9.048

> <W>
-62.426

> <W(PB)>
-64.506

> <W(SA)>
2.080

> <Valence>
2.652

> <Coulomb>
5.578

> <VdW>
0.818

> <VdW6>
-4.535

> <VdW12>
5.352

> <Bond>
0.063

> <Angle>
2.579

> <Pdih>
0.010

> <Idih>
0.000

> <Tether>
0.000

$$$$
VeraChem MOL file


 17 16  0  0  0  0  0  0  0  0999 V2000     
   20.7041   20.6377   24.6244 C   0  0  0  0  0  0  0  0  0  0  0  0
   21.9189   20.6474   24.5563 O   0  5  0  0  0  0  0  0  0  0  0  0
   20.0791   21.3680   25.3685 O   0  0  0  0  0  0  0  0  0  0  0  0
   19.9273   19.6972   23.7721 C   0  0  0  0  0  0  0  0  0  0  0  0
   18.8462   19.7391   23.8825 H   0  0  0  0  0  0  0  0  0  0  0  0
   20.4901   18.8308   22.8994 C   0  0  0  0  0  0  0  0  0  0  0  0
   21.5721   18.7829   22.7784 H   0  0  0  0  0  0  0  0  0  0  0  0
   19.6928   17.8792   22.0324 C   0  0  0  0  0  0  0  0  0  0  0  0
   18.8635   17.4566   22.6157 H   0  0  0  0  0  0  0  0  0  0  0  0
   20.3220   17.0296   21.7349 H   0  0  0  0  0  0  0  0  0  0  0  0
   19.1255   18.5680   20.7717 C   0  0  0  0  0  0  0  0  0  0  0  0
   18.4730   17.8622   20.2396 H   0  0  0  0  0  0  0  0  0  0  0  0
   18.4943   19.4179   21.0663 H   0  0  0  0  0  0  0  0  0  0  0  0
   20.2340   19.0516   19.8125 C   0  0  0  0  0  0  0  0  0  0  0  0
   20.8705   18.2155   19.4946 H   0  0  0  0  0  0  0  0  0  0  0  0
   19.7960   19.5049   18.9139 H   0  0  0  0  0  0  0  0  0  0  0  0
   20.8721   19.8051   20.2924 H   0  0  0  0  0  0  0  0  0  0  0  0
  1  2  1  0  0  0  0
  1  3  2  0  0  0  0
  1  4  1  0  0  0  0
  4  5  1  0  0  0  0
  4  6  2  0  0  0  0
  6  7  1  0  0  0  0
  6  8  1  0  0  0  0
  8  9  1  0  0  0  0
  8 10  1  0  0  0  0
  8 11  1  0  0  0  0
 11 12  1  0  0  0  0
 11 13  1  0  0  0  0
 11 14  1  0  0  0  0
 14 15  1  0  0  0  0
 14 16  1  0  0  0  0
 14 17  1  0  0  0  0
M  END
> <VConfSearch Rank>
711

> <Conf_Id>
3

> <Delta U+W>
0.531

> <U+W>
-52.878

> <U>
10.067

> <W>
-62.945

> <W(PB)>
-64.982

> <W(SA)>
2.037

> <Valence>
2.779

> <Coulomb>
6.474

> <VdW>
0.815

> <VdW6>
-5.088

> <VdW12>
5.902

> <Bond>
0.078

> <Angle>
2.651

> <Pdih>
0.050

> <Idih>
0.000

> <Tether>
0.000

$$$$
VeraChem MOL file


 17 16  0  0  0  0  0  0  0  0999 V2000     
   21.4415   21.4259   23.3261 C   0  0  0  0  0  0  0  0  0  0  0  0
   21.1083   22.5913   23.4185 O   0  5  0  0  0  0  0  0  0  0  0  0
   22.5991   21.0612   23.4128 O   0  0  0  0  0  0  0  0  0  0  0  0
   20.3685   20.4201   23.1003 C   0  0  0  0  0  0  0  0  0  0  0  0
   19.3569   20.8135   23.0327 H   0  0  0  0  0  0  0  0  0  0  0  0
   20.5943   19.0923   22.9760 C   0  0  0  0  0  0  0  0  0  0  0  0
   21.6052   18.6901   23.0389 H   0  0  0  0  0  0  0  0  0  0  0  0
   19.5001   18.0710   22.7435 C   0  0  0  0  0  0  0  0  0  0  0  0
   18.5176   18.4935   22.9943 H   0  0  0  0  0  0  0  0  0  0  0  0
   19.6507   17.2230   23.4247 H   0  0  0  0  0  0  0  0  0  0  0  0
   19.4847   17.5492   21.2900 C   0  0  0  0  0  0  0  0  0  0  0  0
   20.4680   17.1288   21.0373 H   0  0  0  0  0  0  0  0  0  0  0  0
   18.7619   16.7253   21.2126 H   0  0  0  0  0  0  0  0  0  0  0  0
   19.1095   18.6448   20.2694 C   0  0  0  0  0  0  0  0  0  0  0  0
   19.8470   19.4579   20.2720 H   0  0  0  0  0  0  0  0  0  0  0  0
   19.0703   18.2296   19.2541 H   0  0  0  0  0  0  0  0  0  0  0  0
   18.1255   19.0742   20.4986 H   0  0  0  0  0  0  0  0  0  0  0  0
  1  2  1  0  0  0  0
  1  3  2  0  0  0  0
  1  4  1  0  0  0  0
  4  5  1  0  0  0  0
  4  6  2  0  0  0  0
  6  7  1  0  0  0  0
  6  8  1  0  0  0  0
  8  9  1  0  0  0  0
  8 10  1  0  0  0  0
  8 11  1  0  0  0  0
 11 12  1  0  0  0  0
 11 13  1  0  0  0  0
 11 14  1  0  0  0  0
 14 15  1  0  0  0  0
 14 16  1  0  0  0  0
 14 17  1  0  0  0  0
M  END
> <VConfSearch Rank>
712

> <Conf_Id>
45

> <Delta U+W>
0.562

> <U+W>
-52.846

> <U>
10.243

> <W>
-63.089

> <W(PB)>
-65.116

> <W(SA)>
2.026

> <Valence>
2.822

> <Coulomb>
6.637

> <VdW>
0.785

> <VdW6>
-5.216

> <VdW12>
6.001

> <Bond>
0.080

> <Angle>
2.678

> <Pdih>
0.064

> <Idih>
0.000

> <Tether>
0.000

$$$$
VeraChem MOL file


 17 16  0  0  0  0  0  0  0  0999 V2000     
   17.2194   20.9181   22.5790 C   0  0  0  0  0  0  0  0  0  0  0  0
   16.1981   21.0266   21.9287 O   0  5  0  0  0  0  0  0  0  0  0  0
   17.4915   21.6536   23.5093 O   0  0  0  0  0  0  0  0  0  0  0  0
   18.1618   19.8298   22.2027 C   0  0  0  0  0  0  0  0  0  0  0  0
   17.8586   19.2088   21.3628 H   0  0  0  0  0  0  0  0  0  0  0  0
   19.3330   19.5942   22.8366 C   0  0  0  0  0  0  0  0  0  0  0  0
   19.6476   20.2117   23.6777 H   0  0  0  0  0  0  0  0  0  0  0  0
   20.2868   18.4864   22.4461 C   0  0  0  0  0  0  0  0  0  0  0  0
   19.7224   17.5890   22.1581 H   0  0  0  0  0  0  0  0  0  0  0  0
   20.8990   18.2055   23.3136 H   0  0  0  0  0  0  0  0  0  0  0  0
   21.2050   18.9190   21.2847 C   0  0  0  0  0  0  0  0  0  0  0  0
   20.5941   19.1964   20.4145 H   0  0  0  0  0  0  0  0  0  0  0  0
   21.7699   19.8154   21.5759 H   0  0  0  0  0  0  0  0  0  0  0  0
   22.1868   17.7985   20.8869 C   0  0  0  0  0  0  0  0  0  0  0  0
   22.8324   17.5236   21.7313 H   0  0  0  0  0  0  0  0  0  0  0  0
   21.6464   16.8999   20.5616 H   0  0  0  0  0  0  0  0  0  0  0  0
   22.8310   18.1244   20.0600 H   0  0  0  0  0  0  0  0  0  0  0  0
  1  2  1  0  0  0  0
  1  3  2  0  0  0  0
  1  4  1  0  0  0  0
  4  5  1  0  0  0  0
  4  6  2  0  0  0  0
  6  7  1  0  0  0  0
  6  8  1  0  0  0  0
  8  9  1  0  0  0  0
  8 10  1  0  0  0  0
  8 11  1  0  0  0  0
 11 12  1  0  0  0  0
 11 13  1  0  0  0  0
 11 14  1  0  0  0  0
 14 15  1  0  0  0  0
 14 16  1  0  0  0  0
 14 17  1  0  0  0  0
M  END
> <VConfSearch Rank>
713

> <Conf_Id>
36

> <Delta U+W>
0.000

> <U+W>
-53.409

> <U>
9.048

> <W>
-62.457

> <W(PB)>
-64.540

> <W(SA)>
2.084

> <Valence>
2.652

> <Coulomb>
5.578

> <VdW>
0.818

> <VdW6>
-4.534

> <VdW12>
5.352

> <Bond>
0.063

> <Angle>
2.579

> <Pdih>
0.010

> <Idih>
0.000

> <Tether>
0.000

$$$$
VeraChem MOL file


 17 16  0  0  0  0  0  0  0  0999 V2000     
   20.2004   19.7986   25.2069 C   0  0  0  0  0  0  0  0  0  0  0  0
   20.2941   18.7351   25.7905 O   0  5  0  0  0  0  0  0  0  0  0  0
   19.9981   20.8509   25.7809 O   0  0  0  0  0  0  0  0  0  0  0  0
   20.3374   19.8387   23.7257 C   0  0  0  0  0  0  0  0  0  0  0  0
   20.2434   20.8202   23.2668 H   0  0  0  0  0  0  0  0  0  0  0  0
   20.5626   18.7470   22.9598 C   0  0  0  0  0  0  0  0  0  0  0  0
   20.6562   17.7584   23.4090 H   0  0  0  0  0  0  0  0  0  0  0  0
   20.6988   18.7961   21.4537 C   0  0  0  0  0  0  0  0  0  0  0  0
   21.2921   17.9382   21.1098 H   0  0  0  0  0  0  0  0  0  0  0  0
   21.2513   19.6977   21.1558 H   0  0  0  0  0  0  0  0  0  0  0  0
   19.3193   18.7794   20.7639 C   0  0  0  0  0  0  0  0  0  0  0  0
   18.7695   17.8757   21.0617 H   0  0  0  0  0  0  0  0  0  0  0  0
   18.7258   19.6395   21.1038 H   0  0  0  0  0  0  0  0  0  0  0  0
   19.4497   18.8199   19.2280 C   0  0  0  0  0  0  0  0  0  0  0  0
   20.0126   17.9527   18.8584 H   0  0  0  0  0  0  0  0  0  0  0  0
   18.4590   18.8072   18.7553 H   0  0  0  0  0  0  0  0  0  0  0  0
   19.9692   19.7304   18.9018 H   0  0  0  0  0  0  0  0  0  0  0  0
  1  2  1  0  0  0  0
  1  3  2  0  0  0  0
  1  4  1  0  0  0  0
  4  5  1  0  0  0  0
  4  6  2  0  0  0  0
  6  7  1  0  0  0  0
  6  8  1  0  0  0  0
  8  9  1  0  0  0  0
  8 10  1  0  0  0  0
  8 11  1  0  0  0  0
 11 12  1  0  0  0  0
 11 13  1  0  0  0  0
 11 14  1  0  0  0  0
 14 15  1  0  0  0  0
 14 16  1  0  0  0  0
 14 17  1  0  0  0  0
M  END
> <VConfSearch Rank>
714

> <Conf_Id>
1

> <Delta U+W>
0.030

> <U+W>
-53.378

> <U>
9.048

> <W>
-62.426

> <W(PB)>
-64.506

> <W(SA)>
2.080

> <Valence>
2.652

> <Coulomb>
5.578

> <VdW>
0.818

> <VdW6>
-4.535

> <VdW12>
5.352

> <Bond>
0.063

> <Angle>
2.579

> <Pdih>
0.010

> <Idih>
0.000

> <Tether>
0.000

$$$$
VeraChem MOL file


 17 16  0  0  0  0  0  0  0  0999 V2000     
   17.0241   19.7838   22.2978 C   0  0  0  0  0  0  0  0  0  0  0  0
   17.0039   20.8651   21.7404 O   0  5  0  0  0  0  0  0  0  0  0  0
   16.0185   19.1398   22.5254 O   0  0  0  0  0  0  0  0  0  0  0  0
   18.3241   19.2048   22.7327 C   0  0  0  0  0  0  0  0  0  0  0  0
   18.2715   18.2367   23.2254 H   0  0  0  0  0  0  0  0  0  0  0  0
   19.5191   19.8092   22.5438 C   0  0  0  0  0  0  0  0  0  0  0  0
   19.5836   20.7776   22.0483 H   0  0  0  0  0  0  0  0  0  0  0  0
   20.8386   19.2119   22.9857 C   0  0  0  0  0  0  0  0  0  0  0  0
   20.7198   18.7469   23.9737 H   0  0  0  0  0  0  0  0  0  0  0  0
   21.5852   20.0078   23.1097 H   0  0  0  0  0  0  0  0  0  0  0  0
   21.3689   18.1569   21.9901 C   0  0  0  0  0  0  0  0  0  0  0  0
   22.2672   17.6850   22.4114 H   0  0  0  0  0  0  0  0  0  0  0  0
   20.6243   17.3585   21.8649 H   0  0  0  0  0  0  0  0  0  0  0  0
   21.7162   18.7642   20.6141 C   0  0  0  0  0  0  0  0  0  0  0  0
   22.4690   19.5570   20.7135 H   0  0  0  0  0  0  0  0  0  0  0  0
   22.1207   17.9948   19.9438 H   0  0  0  0  0  0  0  0  0  0  0  0
   20.8269   19.1939   20.1350 H   0  0  0  0  0  0  0  0  0  0  0  0
  1  2  1  0  0  0  0
  1  3  2  0  0  0  0
  1  4  1  0  0  0  0
  4  5  1  0  0  0  0
  4  6  2  0  0  0  0
  6  7  1  0  0  0  0
  6  8  1  0  0  0  0
  8  9  1  0  0  0  0
  8 10  1  0  0  0  0
  8 11  1  0  0  0  0
 11 12  1  0  0  0  0
 11 13  1  0  0  0  0
 11 14  1  0  0  0  0
 14 15  1  0  0  0  0
 14 16  1  0  0  0  0
 14 17  1  0  0  0  0
M  END
> <VConfSearch Rank>
715

> <Conf_Id>
3

> <Delta U+W>
0.531

> <U+W>
-52.878

> <U>
10.067

> <W>
-62.945

> <W(PB)>
-64.982

> <W(SA)>
2.037

> <Valence>
2.779

> <Coulomb>
6.474

> <VdW>
0.815

> <VdW6>
-5.088

> <VdW12>
5.902

> <Bond>
0.078

> <Angle>
2.651

> <Pdih>
0.050

> <Idih>
0.000

> <Tether>
0.000

$$$$
VeraChem MOL file


 17 16  0  0  0  0  0  0  0  0999 V2000     
   18.4318   21.6933   22.1312 C   0  0  0  0  0  0  0  0  0  0  0  0
   17.2594   21.9017   21.8866 O   0  5  0  0  0  0  0  0  0  0  0  0
   19.2785   22.5666   22.0990 O   0  0  0  0  0  0  0  0  0  0  0  0
   18.8232   20.3022   22.4858 C   0  0  0  0  0  0  0  0  0  0  0  0
   18.0180   19.5713   22.4960 H   0  0  0  0  0  0  0  0  0  0  0  0
   20.0894   19.9270   22.7785 C   0  0  0  0  0  0  0  0  0  0  0  0
   20.9028   20.6522   22.7671 H   0  0  0  0  0  0  0  0  0  0  0  0
   20.4852   18.5095   23.1365 C   0  0  0  0  0  0  0  0  0  0  0  0
   19.6021   17.9224   23.4231 H   0  0  0  0  0  0  0  0  0  0  0  0
   21.1369   18.5317   24.0202 H   0  0  0  0  0  0  0  0  0  0  0  0
   21.2285   17.7996   21.9838 C   0  0  0  0  0  0  0  0  0  0  0  0
   22.1106   18.3876   21.6947 H   0  0  0  0  0  0  0  0  0  0  0  0
   21.6013   16.8298   22.3411 H   0  0  0  0  0  0  0  0  0  0  0  0
   20.3296   17.5693   20.7502 C   0  0  0  0  0  0  0  0  0  0  0  0
   19.9889   18.5222   20.3249 H   0  0  0  0  0  0  0  0  0  0  0  0
   20.8784   17.0290   19.9681 H   0  0  0  0  0  0  0  0  0  0  0  0
   19.4444   16.9763   21.0148 H   0  0  0  0  0  0  0  0  0  0  0  0
  1  2  1  0  0  0  0
  1  3  2  0  0  0  0
  1  4  1  0  0  0  0
  4  5  1  0  0  0  0
  4  6  2  0  0  0  0
  6  7  1  0  0  0  0
  6  8  1  0  0  0  0
  8  9  1  0  0  0  0
  8 10  1  0  0  0  0
  8 11  1  0  0  0  0
 11 12  1  0  0  0  0
 11 13  1  0  0  0  0
 11 14  1  0  0  0  0
 14 15  1  0  0  0  0
 14 16  1  0  0  0  0
 14 17  1  0  0  0  0
M  END
> <VConfSearch Rank>
716

> <Conf_Id>
45

> <Delta U+W>
0.562

> <U+W>
-52.846

> <U>
10.243

> <W>
-63.089

> <W(PB)>
-65.116

> <W(SA)>
2.026

> <Valence>
2.822

> <Coulomb>
6.637

> <VdW>
0.785

> <VdW6>
-5.216

> <VdW12>
6.001

> <Bond>
0.080

> <Angle>
2.678

> <Pdih>
0.064

> <Idih>
0.000

> <Tether>
0.000

$$$$
VeraChem MOL file


 17 16  0  0  0  0  0  0  0  0999 V2000     
   22.3458   16.7731   22.5015 C   0  0  0  0  0  0  0  0  0  0  0  0
   22.9276   16.0525   21.7141 O   0  5  0  0  0  0  0  0  0  0  0  0
   22.3715   16.5936   23.7046 O   0  0  0  0  0  0  0  0  0  0  0  0
   21.5765   17.9191   21.9457 C   0  0  0  0  0  0  0  0  0  0  0  0
   21.5948   18.0226   20.8631 H   0  0  0  0  0  0  0  0  0  0  0  0
   20.8822   18.7989   22.7027 C   0  0  0  0  0  0  0  0  0  0  0  0
   20.8552   18.7031   23.7880 H   0  0  0  0  0  0  0  0  0  0  0  0
   20.1005   19.9605   22.1293 C   0  0  0  0  0  0  0  0  0  0  0  0
   20.6475   20.4007   21.2843 H   0  0  0  0  0  0  0  0  0  0  0  0
   20.0071   20.7505   22.8866 H   0  0  0  0  0  0  0  0  0  0  0  0
   18.6965   19.5196   21.6675 C   0  0  0  0  0  0  0  0  0  0  0  0
   18.7883   18.7320   20.9066 H   0  0  0  0  0  0  0  0  0  0  0  0
   18.1507   19.0816   22.5147 H   0  0  0  0  0  0  0  0  0  0  0  0
   17.8897   20.7000   21.0903 C   0  0  0  0  0  0  0  0  0  0  0  0
   17.7557   21.4892   21.8417 H   0  0  0  0  0  0  0  0  0  0  0  0
   18.3995   21.1367   20.2214 H   0  0  0  0  0  0  0  0  0  0  0  0
   16.8947   20.3672   20.7673 H   0  0  0  0  0  0  0  0  0  0  0  0
  1  2  1  0  0  0  0
  1  3  2  0  0  0  0
  1  4  1  0  0  0  0
  4  5  1  0  0  0  0
  4  6  2  0  0  0  0
  6  7  1  0  0  0  0
  6  8  1  0  0  0  0
  8  9  1  0  0  0  0
  8 10  1  0  0  0  0
  8 11  1  0  0  0  0
 11 12  1  0  0  0  0
 11 13  1  0  0  0  0
 11 14  1  0  0  0  0
 14 15  1  0  0  0  0
 14 16  1  0  0  0  0
 14 17  1  0  0  0  0
M  END
> <VConfSearch Rank>
717

> <Conf_Id>
36

> <Delta U+W>
0.000

> <U+W>
-53.409

> <U>
9.048

> <W>
-62.457

> <W(PB)>
-64.540

> <W(SA)>
2.084

> <Valence>
2.652

> <Coulomb>
5.578

> <VdW>
0.818

> <VdW6>
-4.534

> <VdW12>
5.352

> <Bond>
0.063

> <Angle>
2.579

> <Pdih>
0.010

> <Idih>
0.000

> <Tether>
0.000

$$$$
VeraChem MOL file


 17 16  0  0  0  0  0  0  0  0999 V2000     
   16.9481   18.8522   20.5284 C   0  0  0  0  0  0  0  0  0  0  0  0
   16.5292   19.9872   20.3993 O   0  5  0  0  0  0  0  0  0  0  0  0
   16.2505   17.8693   20.3703 O   0  0  0  0  0  0  0  0  0  0  0  0
   18.3735   18.6320   20.8941 C   0  0  0  0  0  0  0  0  0  0  0  0
   18.6831   17.5941   20.9934 H   0  0  0  0  0  0  0  0  0  0  0  0
   19.2615   19.6308   21.1013 C   0  0  0  0  0  0  0  0  0  0  0  0
   18.9614   20.6743   21.0066 H   0  0  0  0  0  0  0  0  0  0  0  0
   20.7091   19.3983   21.4748 C   0  0  0  0  0  0  0  0  0  0  0  0
   21.3125   20.2616   21.1635 H   0  0  0  0  0  0  0  0  0  0  0  0
   21.1025   18.5292   20.9301 H   0  0  0  0  0  0  0  0  0  0  0  0
   20.8692   19.1772   22.9929 C   0  0  0  0  0  0  0  0  0  0  0  0
   20.4770   20.0486   23.5355 H   0  0  0  0  0  0  0  0  0  0  0  0
   20.2693   18.3112   23.3054 H   0  0  0  0  0  0  0  0  0  0  0  0
   22.3434   18.9486   23.3830 C   0  0  0  0  0  0  0  0  0  0  0  0
   22.9610   19.8143   23.1100 H   0  0  0  0  0  0  0  0  0  0  0  0
   22.4373   18.7934   24.4657 H   0  0  0  0  0  0  0  0  0  0  0  0
   22.7509   18.0634   22.8773 H   0  0  0  0  0  0  0  0  0  0  0  0
  1  2  1  0  0  0  0
  1  3  2  0  0  0  0
  1  4  1  0  0  0  0
  4  5  1  0  0  0  0
  4  6  2  0  0  0  0
  6  7  1  0  0  0  0
  6  8  1  0  0  0  0
  8  9  1  0  0  0  0
  8 10  1  0  0  0  0
  8 11  1  0  0  0  0
 11 12  1  0  0  0  0
 11 13  1  0  0  0  0
 11 14  1  0  0  0  0
 14 15  1  0  0  0  0
 14 16  1  0  0  0  0
 14 17  1  0  0  0  0
M  END
> <VConfSearch Rank>
718

> <Conf_Id>
1

> <Delta U+W>
0.030

> <U+W>
-53.378

> <U>
9.048

> <W>
-62.426

> <W(PB)>
-64.506

> <W(SA)>
2.080

> <Valence>
2.652

> <Coulomb>
5.578

> <VdW>
0.818

> <VdW6>
-4.535

> <VdW12>
5.352

> <Bond>
0.063

> <Angle>
2.579

> <Pdih>
0.010

> <Idih>
0.000

> <Tether>
0.000

$$$$
VeraChem MOL file


 17 16  0  0  0  0  0  0  0  0999 V2000     
   18.7876   16.7314   23.6113 C   0  0  0  0  0  0  0  0  0  0  0  0
   18.3898   17.3104   24.6048 O   0  5  0  0  0  0  0  0  0  0  0  0
   18.4239   15.6110   23.3106 O   0  0  0  0  0  0  0  0  0  0  0  0
   19.7647   17.4016   22.7113 C   0  0  0  0  0  0  0  0  0  0  0  0
   20.0798   16.8288   21.8421 H   0  0  0  0  0  0  0  0  0  0  0  0
   20.2533   18.6450   22.9216 C   0  0  0  0  0  0  0  0  0  0  0  0
   19.9417   19.2289   23.7874 H   0  0  0  0  0  0  0  0  0  0  0  0
   21.2447   19.3222   21.9989 C   0  0  0  0  0  0  0  0  0  0  0  0
   21.9960   18.5931   21.6666 H   0  0  0  0  0  0  0  0  0  0  0  0
   21.7940   20.0992   22.5474 H   0  0  0  0  0  0  0  0  0  0  0  0
   20.5638   19.9472   20.7615 C   0  0  0  0  0  0  0  0  0  0  0  0
   21.3369   20.3286   20.0804 H   0  0  0  0  0  0  0  0  0  0  0  0
   20.0144   19.1718   20.2098 H   0  0  0  0  0  0  0  0  0  0  0  0
   19.6054   21.0990   21.1324 C   0  0  0  0  0  0  0  0  0  0  0  0
   20.1363   21.8925   21.6743 H   0  0  0  0  0  0  0  0  0  0  0  0
   19.1657   21.5412   20.2291 H   0  0  0  0  0  0  0  0  0  0  0  0
   18.7834   20.7417   21.7663 H   0  0  0  0  0  0  0  0  0  0  0  0
  1  2  1  0  0  0  0
  1  3  2  0  0  0  0
  1  4  1  0  0  0  0
  4  5  1  0  0  0  0
  4  6  2  0  0  0  0
  6  7  1  0  0  0  0
  6  8  1  0  0  0  0
  8  9  1  0  0  0  0
  8 10  1  0  0  0  0
  8 11  1  0  0  0  0
 11 12  1  0  0  0  0
 11 13  1  0  0  0  0
 11 14  1  0  0  0  0
 14 15  1  0  0  0  0
 14 16  1  0  0  0  0
 14 17  1  0  0  0  0
M  END
> <VConfSearch Rank>
719

> <Conf_Id>
3

> <Delta U+W>
0.531

> <U+W>
-52.878

> <U>
10.067

> <W>
-62.945

> <W(PB)>
-64.982

> <W(SA)>
2.037

> <Valence>
2.779

> <Coulomb>
6.474

> <VdW>
0.815

> <VdW6>
-5.088

> <VdW12>
5.902

> <Bond>
0.078

> <Angle>
2.651

> <Pdih>
0.050

> <Idih>
0.000

> <Tether>
0.000

$$$$
VeraChem MOL file


 17 16  0  0  0  0  0  0  0  0999 V2000     
   19.5198   19.3289   19.1006 C   0  0  0  0  0  0  0  0  0  0  0  0
   19.9217   20.1675   18.3176 O   0  5  0  0  0  0  0  0  0  0  0  0
   18.5572   18.6204   18.8729 O   0  0  0  0  0  0  0  0  0  0  0  0
   20.2558   19.1792   20.3851 C   0  0  0  0  0  0  0  0  0  0  0  0
   21.1058   19.8431   20.5244 H   0  0  0  0  0  0  0  0  0  0  0  0
   19.9190   18.2902   21.3473 C   0  0  0  0  0  0  0  0  0  0  0  0
   19.0666   17.6238   21.2174 H   0  0  0  0  0  0  0  0  0  0  0  0
   20.6686   18.1420   22.6552 C   0  0  0  0  0  0  0  0  0  0  0  0
   21.6613   18.6072   22.5865 H   0  0  0  0  0  0  0  0  0  0  0  0
   20.8440   17.0753   22.8488 H   0  0  0  0  0  0  0  0  0  0  0  0
   19.8937   18.7464   23.8466 C   0  0  0  0  0  0  0  0  0  0  0  0
   18.8994   18.2834   23.9145 H   0  0  0  0  0  0  0  0  0  0  0  0
   20.4195   18.4985   24.7790 H   0  0  0  0  0  0  0  0  0  0  0  0
   19.7478   20.2797   23.7438 C   0  0  0  0  0  0  0  0  0  0  0  0
   19.1698   20.5639   22.8549 H   0  0  0  0  0  0  0  0  0  0  0  0
   19.2277   20.6779   24.6246 H   0  0  0  0  0  0  0  0  0  0  0  0
   20.7310   20.7642   23.6825 H   0  0  0  0  0  0  0  0  0  0  0  0
  1  2  1  0  0  0  0
  1  3  2  0  0  0  0
  1  4  1  0  0  0  0
  4  5  1  0  0  0  0
  4  6  2  0  0  0  0
  6  7  1  0  0  0  0
  6  8  1  0  0  0  0
  8  9  1  0  0  0  0
  8 10  1  0  0  0  0
  8 11  1  0  0  0  0
 11 12  1  0  0  0  0
 11 13  1  0  0  0  0
 11 14  1  0  0  0  0
 14 15  1  0  0  0  0
 14 16  1  0  0  0  0
 14 17  1  0  0  0  0
M  END
> <VConfSearch Rank>
720

> <Conf_Id>
45

> <Delta U+W>
0.562

> <U+W>
-52.846

> <U>
10.243

> <W>
-63.089

> <W(PB)>
-65.116

> <W(SA)>
2.026

> <Valence>
2.822

> <Coulomb>
6.637

> <VdW>
0.785

> <VdW6>
-5.216

> <VdW12>
6.001

> <Bond>
0.080

> <Angle>
2.678

> <Pdih>
0.064

> <Idih>
0.000

> <Tether>
0.000

$$$$
VeraChem MOL file


 17 16  0  0  0  0  0  0  0  0999 V2000     
   18.1862   18.1345   19.2403 C   0  0  0  0  0  0  0  0  0  0  0  0
   17.0653   18.4651   18.9055 O   0  5  0  0  0  0  0  0  0  0  0  0
   18.7686   17.1847   18.7513 O   0  0  0  0  0  0  0  0  0  0  0  0
   18.8553   18.9432   20.2951 C   0  0  0  0  0  0  0  0  0  0  0  0
   18.2801   19.7776   20.6897 H   0  0  0  0  0  0  0  0  0  0  0  0
   20.0981   18.6898   20.7643 C   0  0  0  0  0  0  0  0  0  0  0  0
   20.6823   17.8549   20.3776 H   0  0  0  0  0  0  0  0  0  0  0  0
   20.7705   19.5158   21.8388 C   0  0  0  0  0  0  0  0  0  0  0  0
   20.5310   20.5789   21.7003 H   0  0  0  0  0  0  0  0  0  0  0  0
   21.8611   19.4262   21.7432 H   0  0  0  0  0  0  0  0  0  0  0  0
   20.3372   19.0640   23.2485 C   0  0  0  0  0  0  0  0  0  0  0  0
   19.2467   19.1570   23.3472 H   0  0  0  0  0  0  0  0  0  0  0  0
   20.5797   18.0010   23.3854 H   0  0  0  0  0  0  0  0  0  0  0  0
   21.0255   19.8951   24.3499 C   0  0  0  0  0  0  0  0  0  0  0  0
   22.1174   19.7943   24.2937 H   0  0  0  0  0  0  0  0  0  0  0  0
   20.7739   20.9594   24.2540 H   0  0  0  0  0  0  0  0  0  0  0  0
   20.7050   19.5595   25.3448 H   0  0  0  0  0  0  0  0  0  0  0  0
  1  2  1  0  0  0  0
  1  3  2  0  0  0  0
  1  4  1  0  0  0  0
  4  5  1  0  0  0  0
  4  6  2  0  0  0  0
  6  7  1  0  0  0  0
  6  8  1  0  0  0  0
  8  9  1  0  0  0  0
  8 10  1  0  0  0  0
  8 11  1  0  0  0  0
 11 12  1  0  0  0  0
 11 13  1  0  0  0  0
 11 14  1  0  0  0  0
 14 15  1  0  0  0  0
 14 16  1  0  0  0  0
 14 17  1  0  0  0  0
M  END
> <VConfSearch Rank>
721

> <Conf_Id>
36

> <Delta U+W>
0.000

> <U+W>
-53.409

> <U>
9.048

> <W>
-62.457

> <W(PB)>
-64.540

> <W(SA)>
2.084

> <Valence>
2.652

> <Coulomb>
5.578

> <VdW>
0.818

> <VdW6>
-4.534

> <VdW12>
5.352

> <Bond>
0.063

> <Angle>
2.579

> <Pdih>
0.010

> <Idih>
0.000

> <Tether>
0.000

$$$$
VeraChem MOL file


 17 16  0  0  0  0  0  0  0  0999 V2000     
   16.8394   19.0536   23.0527 C   0  0  0  0  0  0  0  0  0  0  0  0
   16.7054   20.0364   23.7574 O   0  5  0  0  0  0  0  0  0  0  0  0
   16.0133   18.1636   22.9972 O   0  0  0  0  0  0  0  0  0  0  0  0
   18.0590   18.9130   22.2119 C   0  0  0  0  0  0  0  0  0  0  0  0
   18.1164   18.0117   21.6059 H   0  0  0  0  0  0  0  0  0  0  0  0
   19.0584   19.8236   22.1753 C   0  0  0  0  0  0  0  0  0  0  0  0
   19.0121   20.7291   22.7800 H   0  0  0  0  0  0  0  0  0  0  0  0
   20.2963   19.6721   21.3187 C   0  0  0  0  0  0  0  0  0  0  0  0
   20.7203   20.6628   21.1065 H   0  0  0  0  0  0  0  0  0  0  0  0
   20.0299   19.2318   20.3481 H   0  0  0  0  0  0  0  0  0  0  0  0
   21.3572   18.7949   22.0145 C   0  0  0  0  0  0  0  0  0  0  0  0
   21.6236   19.2384   22.9840 H   0  0  0  0  0  0  0  0  0  0  0  0
   20.9359   17.8018   22.2238 H   0  0  0  0  0  0  0  0  0  0  0  0
   22.6261   18.6432   21.1517 C   0  0  0  0  0  0  0  0  0  0  0  0
   23.0859   19.6203   20.9538 H   0  0  0  0  0  0  0  0  0  0  0  0
   23.3686   18.0166   21.6627 H   0  0  0  0  0  0  0  0  0  0  0  0
   22.3917   18.1729   20.1877 H   0  0  0  0  0  0  0  0  0  0  0  0
  1  2  1  0  0  0  0
  1  3  2  0  0  0  0
  1  4  1  0  0  0  0
  4  5  1  0  0  0  0
  4  6  2  0  0  0  0
  6  7  1  0  0  0  0
  6  8  1  0  0  0  0
  8  9  1  0  0  0  0
  8 10  1  0  0  0  0
  8 11  1  0  0  0  0
 11 12  1  0  0  0  0
 11 13  1  0  0  0  0
 11 14  1  0  0  0  0
 14 15  1  0  0  0  0
 14 16  1  0  0  0  0
 14 17  1  0  0  0  0
M  END
> <VConfSearch Rank>
722

> <Conf_Id>
1

> <Delta U+W>
0.030

> <U+W>
-53.378

> <U>
9.048

> <W>
-62.426

> <W(PB)>
-64.506

> <W(SA)>
2.080

> <Valence>
2.652

> <Coulomb>
5.578

> <VdW>
0.818

> <VdW6>
-4.535

> <VdW12>
5.352

> <Bond>
0.063

> <Angle>
2.579

> <Pdih>
0.010

> <Idih>
0.000

> <Tether>
0.000

$$$$
VeraChem MOL file


 17 16  0  0  0  0  0  0  0  0999 V2000     
   21.1659   16.6546   20.5476 C   0  0  0  0  0  0  0  0  0  0  0  0
   22.1884   16.4692   21.1806 O   0  5  0  0  0  0  0  0  0  0  0  0
   20.6991   15.8258   19.7907 O   0  0  0  0  0  0  0  0  0  0  0  0
   20.4389   17.9454   20.6864 C   0  0  0  0  0  0  0  0  0  0  0  0
   19.5335   18.0465   20.0926 H   0  0  0  0  0  0  0  0  0  0  0  0
   20.8419   18.9546   21.4915 C   0  0  0  0  0  0  0  0  0  0  0  0
   21.7458   18.8626   22.0934 H   0  0  0  0  0  0  0  0  0  0  0  0
   20.0946   20.2642   21.6306 C   0  0  0  0  0  0  0  0  0  0  0  0
   19.7357   20.5899   20.6449 H   0  0  0  0  0  0  0  0  0  0  0  0
   20.7787   21.0484   21.9819 H   0  0  0  0  0  0  0  0  0  0  0  0
   18.8939   20.1559   22.5961 C   0  0  0  0  0  0  0  0  0  0  0  0
   18.3307   21.0991   22.5760 H   0  0  0  0  0  0  0  0  0  0  0  0
   18.2069   19.3728   22.2465 H   0  0  0  0  0  0  0  0  0  0  0  0
   19.3269   19.8577   24.0474 C   0  0  0  0  0  0  0  0  0  0  0  0
   20.0050   20.6353   24.4225 H   0  0  0  0  0  0  0  0  0  0  0  0
   18.4532   19.8209   24.7109 H   0  0  0  0  0  0  0  0  0  0  0  0
   19.8424   18.8909   24.1161 H   0  0  0  0  0  0  0  0  0  0  0  0
  1  2  1  0  0  0  0
  1  3  2  0  0  0  0
  1  4  1  0  0  0  0
  4  5  1  0  0  0  0
  4  6  2  0  0  0  0
  6  7  1  0  0  0  0
  6  8  1  0  0  0  0
  8  9  1  0  0  0  0
  8 10  1  0  0  0  0
  8 11  1  0  0  0  0
 11 12  1  0  0  0  0
 11 13  1  0  0  0  0
 11 14  1  0  0  0  0
 14 15  1  0  0  0  0
 14 16  1  0  0  0  0
 14 17  1  0  0  0  0
M  END
> <VConfSearch Rank>
723

> <Conf_Id>
3

> <Delta U+W>
0.531

> <U+W>
-52.878

> <U>
10.067

> <W>
-62.945

> <W(PB)>
-64.982

> <W(SA)>
2.037

> <Valence>
2.779

> <Coulomb>
6.474

> <VdW>
0.815

> <VdW6>
-5.088

> <VdW12>
5.902

> <Bond>
0.078

> <Angle>
2.651

> <Pdih>
0.050

> <Idih>
0.000

> <Tether>
0.000

$$$$
VeraChem MOL file


 17 16  0  0  0  0  0  0  0  0999 V2000     
   19.6300   16.6513   23.8099 C   0  0  0  0  0  0  0  0  0  0  0  0
   20.1048   15.5394   23.6837 O   0  5  0  0  0  0  0  0  0  0  0  0
   18.6358   16.8732   24.4753 O   0  0  0  0  0  0  0  0  0  0  0  0
   20.3143   17.7740   23.1131 C   0  0  0  0  0  0  0  0  0  0  0  0
   21.1964   17.5063   22.5361 H   0  0  0  0  0  0  0  0  0  0  0  0
   19.8958   19.0593   23.1638 C   0  0  0  0  0  0  0  0  0  0  0  0
   19.0109   19.3356   23.7365 H   0  0  0  0  0  0  0  0  0  0  0  0
   20.5930   20.1996   22.4511 C   0  0  0  0  0  0  0  0  0  0  0  0
   21.6127   19.9096   22.1634 H   0  0  0  0  0  0  0  0  0  0  0  0
   20.7001   21.0439   23.1452 H   0  0  0  0  0  0  0  0  0  0  0  0
   19.8164   20.6729   21.2029 C   0  0  0  0  0  0  0  0  0  0  0  0
   18.7953   20.9607   21.4894 H   0  0  0  0  0  0  0  0  0  0  0  0
   20.2967   21.5767   20.8032 H   0  0  0  0  0  0  0  0  0  0  0  0
   19.7629   19.5999   20.0944 C   0  0  0  0  0  0  0  0  0  0  0  0
   19.2313   18.7026   20.4370 H   0  0  0  0  0  0  0  0  0  0  0  0
   19.2386   19.9842   19.2100 H   0  0  0  0  0  0  0  0  0  0  0  0
   20.7739   19.3025   19.7869 H   0  0  0  0  0  0  0  0  0  0  0  0
  1  2  1  0  0  0  0
  1  3  2  0  0  0  0
  1  4  1  0  0  0  0
  4  5  1  0  0  0  0
  4  6  2  0  0  0  0
  6  7  1  0  0  0  0
  6  8  1  0  0  0  0
  8  9  1  0  0  0  0
  8 10  1  0  0  0  0
  8 11  1  0  0  0  0
 11 12  1  0  0  0  0
 11 13  1  0  0  0  0
 11 14  1  0  0  0  0
 14 15  1  0  0  0  0
 14 16  1  0  0  0  0
 14 17  1  0  0  0  0
M  END
> <VConfSearch Rank>
724

> <Conf_Id>
45

> <Delta U+W>
0.562

> <U+W>
-52.846

> <U>
10.243

> <W>
-63.089

> <W(PB)>
-65.116

> <W(SA)>
2.026

> <Valence>
2.822

> <Coulomb>
6.637

> <VdW>
0.785

> <VdW6>
-5.216

> <VdW12>
6.001

> <Bond>
0.080

> <Angle>
2.678

> <Pdih>
0.064

> <Idih>
0.000

> <Tether>
0.000

$$$$
VeraChem MOL file


 17 16  0  0  0  0  0  0  0  0999 V2000     
   18.7116   16.3093   20.5539 C   0  0  0  0  0  0  0  0  0  0  0  0
   19.1005   15.6722   19.5945 O   0  5  0  0  0  0  0  0  0  0  0  0
   17.6182   16.1399   21.0602 O   0  0  0  0  0  0  0  0  0  0  0  0
   19.6312   17.3347   21.1169 C   0  0  0  0  0  0  0  0  0  0  0  0
   20.5923   17.4354   20.6178 H   0  0  0  0  0  0  0  0  0  0  0  0
   19.3298   18.1155   22.1792 C   0  0  0  0  0  0  0  0  0  0  0  0
   18.3689   18.0246   22.6852 H   0  0  0  0  0  0  0  0  0  0  0  0
   20.2701   19.1576   22.7442 C   0  0  0  0  0  0  0  0  0  0  0  0
   21.3035   18.7862   22.7154 H   0  0  0  0  0  0  0  0  0  0  0  0
   20.0309   19.3342   23.8016 H   0  0  0  0  0  0  0  0  0  0  0  0
   20.1720   20.4848   21.9644 C   0  0  0  0  0  0  0  0  0  0  0  0
   20.4151   20.3107   20.9070 H   0  0  0  0  0  0  0  0  0  0  0  0
   19.1380   20.8553   21.9964 H   0  0  0  0  0  0  0  0  0  0  0  0
   21.1206   21.5554   22.5401 C   0  0  0  0  0  0  0  0  0  0  0  0
   20.8785   21.7719   23.5889 H   0  0  0  0  0  0  0  0  0  0  0  0
   22.1655   21.2217   22.4911 H   0  0  0  0  0  0  0  0  0  0  0  0
   21.0369   22.4915   21.9728 H   0  0  0  0  0  0  0  0  0  0  0  0
  1  2  1  0  0  0  0
  1  3  2  0  0  0  0
  1  4  1  0  0  0  0
  4  5  1  0  0  0  0
  4  6  2  0  0  0  0
  6  7  1  0  0  0  0
  6  8  1  0  0  0  0
  8  9  1  0  0  0  0
  8 10  1  0  0  0  0
  8 11  1  0  0  0  0
 11 12  1  0  0  0  0
 11 13  1  0  0  0  0
 11 14  1  0  0  0  0
 14 15  1  0  0  0  0
 14 16  1  0  0  0  0
 14 17  1  0  0  0  0
M  END
> <VConfSearch Rank>
725

> <Conf_Id>
36

> <Delta U+W>
0.000

> <U+W>
-53.409

> <U>
9.048

> <W>
-62.457

> <W(PB)>
-64.540

> <W(SA)>
2.084

> <Valence>
2.652

> <Coulomb>
5.578

> <VdW>
0.818

> <VdW6>
-4.534

> <VdW12>
5.352

> <Bond>
0.063

> <Angle>
2.579

> <Pdih>
0.010

> <Idih>
0.000

> <Tether>
0.000

$$$$
VeraChem MOL file


 17 16  0  0  0  0  0  0  0  0999 V2000     
   21.7810   16.9831   23.8637 C   0  0  0  0  0  0  0  0  0  0  0  0
   22.6276   17.6501   24.4283 O   0  5  0  0  0  0  0  0  0  0  0  0
   21.7780   15.7676   23.8817 O   0  0  0  0  0  0  0  0  0  0  0  0
   20.6904   17.6622   23.1129 C   0  0  0  0  0  0  0  0  0  0  0  0
   19.9668   17.0081   22.6318 H   0  0  0  0  0  0  0  0  0  0  0  0
   20.5705   19.0052   23.0081 C   0  0  0  0  0  0  0  0  0  0  0  0
   21.2911   19.6698   23.4843 H   0  0  0  0  0  0  0  0  0  0  0  0
   19.4593   19.6879   22.2410 C   0  0  0  0  0  0  0  0  0  0  0  0
   19.3021   20.6982   22.6423 H   0  0  0  0  0  0  0  0  0  0  0  0
   18.5153   19.1445   22.3841 H   0  0  0  0  0  0  0  0  0  0  0  0
   19.7866   19.7754   20.7363 C   0  0  0  0  0  0  0  0  0  0  0  0
   20.7300   20.3212   20.5957 H   0  0  0  0  0  0  0  0  0  0  0  0
   19.9402   18.7651   20.3323 H   0  0  0  0  0  0  0  0  0  0  0  0
   18.6628   20.4784   19.9486 C   0  0  0  0  0  0  0  0  0  0  0  0
   18.5100   21.5031   20.3119 H   0  0  0  0  0  0  0  0  0  0  0  0
   18.9135   20.5312   18.8811 H   0  0  0  0  0  0  0  0  0  0  0  0
   17.7143   19.9344   20.0475 H   0  0  0  0  0  0  0  0  0  0  0  0
  1  2  1  0  0  0  0
  1  3  2  0  0  0  0
  1  4  1  0  0  0  0
  4  5  1  0  0  0  0
  4  6  2  0  0  0  0
  6  7  1  0  0  0  0
  6  8  1  0  0  0  0
  8  9  1  0  0  0  0
  8 10  1  0  0  0  0
  8 11  1  0  0  0  0
 11 12  1  0  0  0  0
 11 13  1  0  0  0  0
 11 14  1  0  0  0  0
 14 15  1  0  0  0  0
 14 16  1  0  0  0  0
 14 17  1  0  0  0  0
M  END
> <VConfSearch Rank>
726

> <Conf_Id>
1

> <Delta U+W>
0.030

> <U+W>
-53.378

> <U>
9.048

> <W>
-62.426

> <W(PB)>
-64.506

> <W(SA)>
2.080

> <Valence>
2.652

> <Coulomb>
5.578

> <VdW>
0.818

> <VdW6>
-4.535

> <VdW12>
5.352

> <Bond>
0.063

> <Angle>
2.579

> <Pdih>
0.010

> <Idih>
0.000

> <Tether>
0.000

$$$$
VeraChem MOL file


 17 16  0  0  0  0  0  0  0  0999 V2000     
   17.2770   18.2317   23.1738 C   0  0  0  0  0  0  0  0  0  0  0  0
   16.5716   19.1183   22.7302 O   0  5  0  0  0  0  0  0  0  0  0  0
   16.8293   17.1937   23.6209 O   0  0  0  0  0  0  0  0  0  0  0  0
   18.7551   18.4032   23.1834 C   0  0  0  0  0  0  0  0  0  0  0  0
   19.3266   17.5741   23.5940 H   0  0  0  0  0  0  0  0  0  0  0  0
   19.3891   19.5032   22.7175 C   0  0  0  0  0  0  0  0  0  0  0  0
   18.8265   20.3383   22.3009 H   0  0  0  0  0  0  0  0  0  0  0  0
   20.8942   19.6691   22.7270 C   0  0  0  0  0  0  0  0  0  0  0  0
   21.3018   19.2793   23.6696 H   0  0  0  0  0  0  0  0  0  0  0  0
   21.1519   20.7364   22.7002 H   0  0  0  0  0  0  0  0  0  0  0  0
   21.5728   18.9443   21.5439 C   0  0  0  0  0  0  0  0  0  0  0  0
   22.6634   19.0094   21.6606 H   0  0  0  0  0  0  0  0  0  0  0  0
   21.3178   17.8757   21.5687 H   0  0  0  0  0  0  0  0  0  0  0  0
   21.1751   19.5421   20.1774 C   0  0  0  0  0  0  0  0  0  0  0  0
   21.4325   20.6080   20.1252 H   0  0  0  0  0  0  0  0  0  0  0  0
   21.7002   19.0263   19.3631 H   0  0  0  0  0  0  0  0  0  0  0  0
   20.0965   19.4407   19.9996 H   0  0  0  0  0  0  0  0  0  0  0  0
  1  2  1  0  0  0  0
  1  3  2  0  0  0  0
  1  4  1  0  0  0  0
  4  5  1  0  0  0  0
  4  6  2  0  0  0  0
  6  7  1  0  0  0  0
  6  8  1  0  0  0  0
  8  9  1  0  0  0  0
  8 10  1  0  0  0  0
  8 11  1  0  0  0  0
 11 12  1  0  0  0  0
 11 13  1  0  0  0  0
 11 14  1  0  0  0  0
 14 15  1  0  0  0  0
 14 16  1  0  0  0  0
 14 17  1  0  0  0  0
M  END
> <VConfSearch Rank>
727

> <Conf_Id>
3

> <Delta U+W>
0.531

> <U+W>
-52.878

> <U>
10.067

> <W>
-62.945

> <W(PB)>
-64.982

> <W(SA)>
2.037

> <Valence>
2.779

> <Coulomb>
6.474

> <VdW>
0.815

> <VdW6>
-5.088

> <VdW12>
5.902

> <Bond>
0.078

> <Angle>
2.651

> <Pdih>
0.050

> <Idih>
0.000

> <Tether>
0.000

$$$$
VeraChem MOL file


 17 16  0  0  0  0  0  0  0  0999 V2000     
   22.9581   19.4818   21.7852 C   0  0  0  0  0  0  0  0  0  0  0  0
   23.6002   19.8609   20.8251 O   0  5  0  0  0  0  0  0  0  0  0  0
   23.4494   18.8455   22.6985 O   0  0  0  0  0  0  0  0  0  0  0  0
   21.5110   19.8261   21.8236 C   0  0  0  0  0  0  0  0  0  0  0  0
   21.1368   20.3959   20.9763 H   0  0  0  0  0  0  0  0  0  0  0  0
   20.6777   19.4681   22.8271 C   0  0  0  0  0  0  0  0  0  0  0  0
   21.0436   18.8940   23.6780 H   0  0  0  0  0  0  0  0  0  0  0  0
   19.2043   19.8177   22.8621 C   0  0  0  0  0  0  0  0  0  0  0  0
   18.9833   20.6310   22.1575 H   0  0  0  0  0  0  0  0  0  0  0  0
   18.9504   20.2006   23.8596 H   0  0  0  0  0  0  0  0  0  0  0  0
   18.3057   18.6014   22.5490 C   0  0  0  0  0  0  0  0  0  0  0  0
   18.5280   17.7864   23.2517 H   0  0  0  0  0  0  0  0  0  0  0  0
   17.2556   18.8797   22.7134 H   0  0  0  0  0  0  0  0  0  0  0  0
   18.4714   18.0980   21.0992 C   0  0  0  0  0  0  0  0  0  0  0  0
   19.4961   17.7495   20.9155 H   0  0  0  0  0  0  0  0  0  0  0  0
   17.7907   17.2600   20.9012 H   0  0  0  0  0  0  0  0  0  0  0  0
   18.2465   18.8952   20.3788 H   0  0  0  0  0  0  0  0  0  0  0  0
  1  2  1  0  0  0  0
  1  3  2  0  0  0  0
  1  4  1  0  0  0  0
  4  5  1  0  0  0  0
  4  6  2  0  0  0  0
  6  7  1  0  0  0  0
  6  8  1  0  0  0  0
  8  9  1  0  0  0  0
  8 10  1  0  0  0  0
  8 11  1  0  0  0  0
 11 12  1  0  0  0  0
 11 13  1  0  0  0  0
 11 14  1  0  0  0  0
 14 15  1  0  0  0  0
 14 16  1  0  0  0  0
 14 17  1  0  0  0  0
M  END
> <VConfSearch Rank>
728

> <Conf_Id>
45

> <Delta U+W>
0.562

> <U+W>
-52.846

> <U>
10.243

> <W>
-63.089

> <W(PB)>
-65.116

> <W(SA)>
2.026

> <Valence>
2.822

> <Coulomb>
6.637

> <VdW>
0.785

> <VdW6>
-5.216

> <VdW12>
6.001

> <Bond>
0.080

> <Angle>
2.678

> <Pdih>
0.064

> <Idih>
0.000

> <Tether>
0.000

$$$$
VeraChem MOL file


 17 16  0  0  0  0  0  0  0  0999 V2000     
   22.0221   21.7681   22.4001 C   0  0  0  0  0  0  0  0  0  0  0  0
   21.7722   22.9546   22.3133 O   0  5  0  0  0  0  0  0  0  0  0  0
   23.1573   21.3352   22.4673 O   0  0  0  0  0  0  0  0  0  0  0  0
   20.8727   20.8234   22.4249 C   0  0  0  0  0  0  0  0  0  0  0  0
   19.8855   21.2754   22.3615 H   0  0  0  0  0  0  0  0  0  0  0  0
   21.0027   19.4804   22.5170 C   0  0  0  0  0  0  0  0  0  0  0  0
   21.9872   19.0169   22.5787 H   0  0  0  0  0  0  0  0  0  0  0  0
   19.8285   18.5264   22.5394 C   0  0  0  0  0  0  0  0  0  0  0  0
   19.0055   18.9576   23.1255 H   0  0  0  0  0  0  0  0  0  0  0  0
   20.1196   17.5967   23.0465 H   0  0  0  0  0  0  0  0  0  0  0  0
   19.3388   18.2046   21.1126 C   0  0  0  0  0  0  0  0  0  0  0  0
   19.0431   19.1334   20.6053 H   0  0  0  0  0  0  0  0  0  0  0  0
   20.1631   17.7716   20.5291 H   0  0  0  0  0  0  0  0  0  0  0  0
   18.1478   17.2253   21.1264 C   0  0  0  0  0  0  0  0  0  0  0  0
   18.4260   16.2749   21.6005 H   0  0  0  0  0  0  0  0  0  0  0  0
   17.2980   17.6480   21.6782 H   0  0  0  0  0  0  0  0  0  0  0  0
   17.8136   17.0085   20.1034 H   0  0  0  0  0  0  0  0  0  0  0  0
  1  2  1  0  0  0  0
  1  3  2  0  0  0  0
  1  4  1  0  0  0  0
  4  5  1  0  0  0  0
  4  6  2  0  0  0  0
  6  7  1  0  0  0  0
  6  8  1  0  0  0  0
  8  9  1  0  0  0  0
  8 10  1  0  0  0  0
  8 11  1  0  0  0  0
 11 12  1  0  0  0  0
 11 13  1  0  0  0  0
 11 14  1  0  0  0  0
 14 15  1  0  0  0  0
 14 16  1  0  0  0  0
 14 17  1  0  0  0  0
M  END
> <VConfSearch Rank>
729

> <Conf_Id>
36

> <Delta U+W>
0.000

> <U+W>
-53.409

> <U>
9.048

> <W>
-62.457

> <W(PB)>
-64.540

> <W(SA)>
2.084

> <Valence>
2.652

> <Coulomb>
5.578

> <VdW>
0.818

> <VdW6>
-4.534

> <VdW12>
5.352

> <Bond>
0.063

> <Angle>
2.579

> <Pdih>
0.010

> <Idih>
0.000

> <Tether>
0.000

$$$$
VeraChem MOL file


 17 16  0  0  0  0  0  0  0  0999 V2000     
   17.7080   18.0199   19.6984 C   0  0  0  0  0  0  0  0  0  0  0  0
   16.6179   18.2977   20.1617 O   0  5  0  0  0  0  0  0  0  0  0  0
   17.8492   17.3005   18.7287 O   0  0  0  0  0  0  0  0  0  0  0  0
   18.9371   18.5741   20.3280 C   0  0  0  0  0  0  0  0  0  0  0  0
   19.8784   18.2870   19.8649 H   0  0  0  0  0  0  0  0  0  0  0  0
   18.9295   19.3853   21.4101 C   0  0  0  0  0  0  0  0  0  0  0  0
   17.9922   19.6775   21.8833 H   0  0  0  0  0  0  0  0  0  0  0  0
   20.1842   19.9431   22.0455 C   0  0  0  0  0  0  0  0  0  0  0  0
   19.9441   20.8724   22.5796 H   0  0  0  0  0  0  0  0  0  0  0  0
   20.9128   20.2091   21.2675 H   0  0  0  0  0  0  0  0  0  0  0  0
   20.8147   18.9327   23.0255 C   0  0  0  0  0  0  0  0  0  0  0  0
   20.0849   18.6699   23.8039 H   0  0  0  0  0  0  0  0  0  0  0  0
   21.0593   18.0038   22.4918 H   0  0  0  0  0  0  0  0  0  0  0  0
   22.0893   19.4974   23.6845 C   0  0  0  0  0  0  0  0  0  0  0  0
   21.8667   20.4106   24.2519 H   0  0  0  0  0  0  0  0  0  0  0  0
   22.5232   18.7651   24.3777 H   0  0  0  0  0  0  0  0  0  0  0  0
   22.8480   19.7395   22.9287 H   0  0  0  0  0  0  0  0  0  0  0  0
  1  2  1  0  0  0  0
  1  3  2  0  0  0  0
  1  4  1  0  0  0  0
  4  5  1  0  0  0  0
  4  6  2  0  0  0  0
  6  7  1  0  0  0  0
  6  8  1  0  0  0  0
  8  9  1  0  0  0  0
  8 10  1  0  0  0  0
  8 11  1  0  0  0  0
 11 12  1  0  0  0  0
 11 13  1  0  0  0  0
 11 14  1  0  0  0  0
 14 15  1  0  0  0  0
 14 16  1  0  0  0  0
 14 17  1  0  0  0  0
M  END
> <VConfSearch Rank>
730

> <Conf_Id>
1

> <Delta U+W>
0.030

> <U+W>
-53.378

> <U>
9.048

> <W>
-62.426

> <W(PB)>
-64.506

> <W(SA)>
2.080

> <Valence>
2.652

> <Coulomb>
5.578

> <VdW>
0.818

> <VdW6>
-4.535

> <VdW12>
5.352

> <Bond>
0.063

> <Angle>
2.579

> <Pdih>
0.010

> <Idih>
0.000

> <Tether>
0.000

$$$$
VeraChem MOL file


 17 16  0  0  0  0  0  0  0  0999 V2000     
   21.0579   16.1877   21.9819 C   0  0  0  0  0  0  0  0  0  0  0  0
   22.1651   16.3636   21.5091 O   0  5  0  0  0  0  0  0  0  0  0  0
   20.7336   15.1556   22.5365 O   0  0  0  0  0  0  0  0  0  0  0  0
   20.0377   17.2667   21.8869 C   0  0  0  0  0  0  0  0  0  0  0  0
   19.0691   17.0445   22.3286 H   0  0  0  0  0  0  0  0  0  0  0  0
   20.2601   18.4645   21.2997 C   0  0  0  0  0  0  0  0  0  0  0  0
   21.2279   18.6990   20.8570 H   0  0  0  0  0  0  0  0  0  0  0  0
   19.2180   19.5595   21.2102 C   0  0  0  0  0  0  0  0  0  0  0  0
   18.2393   19.1184   20.9776 H   0  0  0  0  0  0  0  0  0  0  0  0
   19.4560   20.2335   20.3763 H   0  0  0  0  0  0  0  0  0  0  0  0
   19.1081   20.3745   22.5176 C   0  0  0  0  0  0  0  0  0  0  0  0
   18.2700   21.0797   22.4318 H   0  0  0  0  0  0  0  0  0  0  0  0
   18.8687   19.7029   23.3537 H   0  0  0  0  0  0  0  0  0  0  0  0
   20.3982   21.1603   22.8349 C   0  0  0  0  0  0  0  0  0  0  0  0
   20.6502   21.8482   22.0173 H   0  0  0  0  0  0  0  0  0  0  0  0
   20.2736   21.7532   23.7503 H   0  0  0  0  0  0  0  0  0  0  0  0
   21.2480   20.4820   22.9866 H   0  0  0  0  0  0  0  0  0  0  0  0
  1  2  1  0  0  0  0
  1  3  2  0  0  0  0
  1  4  1  0  0  0  0
  4  5  1  0  0  0  0
  4  6  2  0  0  0  0
  6  7  1  0  0  0  0
  6  8  1  0  0  0  0
  8  9  1  0  0  0  0
  8 10  1  0  0  0  0
  8 11  1  0  0  0  0
 11 12  1  0  0  0  0
 11 13  1  0  0  0  0
 11 14  1  0  0  0  0
 14 15  1  0  0  0  0
 14 16  1  0  0  0  0
 14 17  1  0  0  0  0
M  END
> <VConfSearch Rank>
731

> <Conf_Id>
3

> <Delta U+W>
0.531

> <U+W>
-52.878

> <U>
10.067

> <W>
-62.945

> <W(PB)>
-64.982

> <W(SA)>
2.037

> <Valence>
2.779

> <Coulomb>
6.474

> <VdW>
0.815

> <VdW6>
-5.088

> <VdW12>
5.902

> <Bond>
0.078

> <Angle>
2.651

> <Pdih>
0.050

> <Idih>
0.000

> <Tether>
0.000

$$$$
VeraChem MOL file


 17 16  0  0  0  0  0  0  0  0999 V2000     
   20.4641   17.1146   19.8537 C   0  0  0  0  0  0  0  0  0  0  0  0
   21.1324   17.2302   18.8448 O   0  5  0  0  0  0  0  0  0  0  0  0
   19.5787   16.2879   19.9682 O   0  0  0  0  0  0  0  0  0  0  0  0
   20.7630   18.0336   20.9851 C   0  0  0  0  0  0  0  0  0  0  0  0
   21.5658   18.7475   20.8164 H   0  0  0  0  0  0  0  0  0  0  0  0
   20.0990   18.0189   22.1635 C   0  0  0  0  0  0  0  0  0  0  0  0
   19.2909   17.3093   22.3396 H   0  0  0  0  0  0  0  0  0  0  0  0
   20.4038   18.9576   23.3125 C   0  0  0  0  0  0  0  0  0  0  0  0
   21.3947   19.4146   23.1857 H   0  0  0  0  0  0  0  0  0  0  0  0
   20.4515   18.3792   24.2448 H   0  0  0  0  0  0  0  0  0  0  0  0
   19.3375   20.0644   23.4639 C   0  0  0  0  0  0  0  0  0  0  0  0
   18.3456   19.6082   23.5881 H   0  0  0  0  0  0  0  0  0  0  0  0
   19.5386   20.6328   24.3824 H   0  0  0  0  0  0  0  0  0  0  0  0
   19.3164   21.0368   22.2652 C   0  0  0  0  0  0  0  0  0  0  0  0
   19.0544   20.5145   21.3359 H   0  0  0  0  0  0  0  0  0  0  0  0
   18.5755   21.8307   22.4250 H   0  0  0  0  0  0  0  0  0  0  0  0
   20.2969   21.5107   22.1270 H   0  0  0  0  0  0  0  0  0  0  0  0
  1  2  1  0  0  0  0
  1  3  2  0  0  0  0
  1  4  1  0  0  0  0
  4  5  1  0  0  0  0
  4  6  2  0  0  0  0
  6  7  1  0  0  0  0
  6  8  1  0  0  0  0
  8  9  1  0  0  0  0
  8 10  1  0  0  0  0
  8 11  1  0  0  0  0
 11 12  1  0  0  0  0
 11 13  1  0  0  0  0
 11 14  1  0  0  0  0
 14 15  1  0  0  0  0
 14 16  1  0  0  0  0
 14 17  1  0  0  0  0
M  END
> <VConfSearch Rank>
732

> <Conf_Id>
45

> <Delta U+W>
0.562

> <U+W>
-52.846

> <U>
10.243

> <W>
-63.089

> <W(PB)>
-65.116

> <W(SA)>
2.026

> <Valence>
2.822

> <Coulomb>
6.637

> <VdW>
0.785

> <VdW6>
-5.216

> <VdW12>
6.001

> <Bond>
0.080

> <Angle>
2.678

> <Pdih>
0.064

> <Idih>
0.000

> <Tether>
0.000

$$$$
VeraChem MOL file


 17 16  0  0  0  0  0  0  0  0999 V2000     
   17.4647   17.8102   23.7233 C   0  0  0  0  0  0  0  0  0  0  0  0
   16.3410   17.5096   23.3703 O   0  5  0  0  0  0  0  0  0  0  0  0
   17.7907   17.8897   24.8929 O   0  0  0  0  0  0  0  0  0  0  0  0
   18.4684   18.0872   22.6602 C   0  0  0  0  0  0  0  0  0  0  0  0
   18.1121   17.9985   21.6365 H   0  0  0  0  0  0  0  0  0  0  0  0
   19.7523   18.4329   22.9075 C   0  0  0  0  0  0  0  0  0  0  0  0
   20.1192   18.5269   23.9294 H   0  0  0  0  0  0  0  0  0  0  0  0
   20.7662   18.7150   21.8204 C   0  0  0  0  0  0  0  0  0  0  0  0
   20.6226   18.0187   20.9830 H   0  0  0  0  0  0  0  0  0  0  0  0
   21.7787   18.5352   22.2062 H   0  0  0  0  0  0  0  0  0  0  0  0
   20.6573   20.1678   21.3139 C   0  0  0  0  0  0  0  0  0  0  0  0
   19.6460   20.3481   20.9236 H   0  0  0  0  0  0  0  0  0  0  0  0
   20.8033   20.8624   22.1528 H   0  0  0  0  0  0  0  0  0  0  0  0
   21.6939   20.4663   20.2121 C   0  0  0  0  0  0  0  0  0  0  0  0
   22.7165   20.3243   20.5857 H   0  0  0  0  0  0  0  0  0  0  0  0
   21.5497   19.8050   19.3475 H   0  0  0  0  0  0  0  0  0  0  0  0
   21.6011   21.5034   19.8645 H   0  0  0  0  0  0  0  0  0  0  0  0
  1  2  1  0  0  0  0
  1  3  2  0  0  0  0
  1  4  1  0  0  0  0
  4  5  1  0  0  0  0
  4  6  2  0  0  0  0
  6  7  1  0  0  0  0
  6  8  1  0  0  0  0
  8  9  1  0  0  0  0
  8 10  1  0  0  0  0
  8 11  1  0  0  0  0
 11 12  1  0  0  0  0
 11 13  1  0  0  0  0
 11 14  1  0  0  0  0
 14 15  1  0  0  0  0
 14 16  1  0  0  0  0
 14 17  1  0  0  0  0
M  END
> <VConfSearch Rank>
733

> <Conf_Id>
36

> <Delta U+W>
0.000

> <U+W>
-53.409

> <U>
9.048

> <W>
-62.457

> <W(PB)>
-64.540

> <W(SA)>
2.084

> <Valence>
2.652

> <Coulomb>
5.578

> <VdW>
0.818

> <VdW6>
-4.534

> <VdW12>
5.352

> <Bond>
0.063

> <Angle>
2.579

> <Pdih>
0.010

> <Idih>
0.000

> <Tether>
0.000

$$$$
VeraChem MOL file


 17 16  0  0  0  0  0  0  0  0999 V2000     
   20.3606   15.8371   21.1045 C   0  0  0  0  0  0  0  0  0  0  0  0
   19.2385   15.3826   20.9833 O   0  5  0  0  0  0  0  0  0  0  0  0
   21.3560   15.1397   21.1302 O   0  0  0  0  0  0  0  0  0  0  0  0
   20.5484   17.3081   21.2270 C   0  0  0  0  0  0  0  0  0  0  0  0
   21.5760   17.6482   21.3323 H   0  0  0  0  0  0  0  0  0  0  0  0
   19.5328   18.2011   21.2153 C   0  0  0  0  0  0  0  0  0  0  0  0
   18.4992   17.8711   21.1126 H   0  0  0  0  0  0  0  0  0  0  0  0
   19.7322   19.6956   21.3423 C   0  0  0  0  0  0  0  0  0  0  0  0
   18.8859   20.2203   20.8790 H   0  0  0  0  0  0  0  0  0  0  0  0
   20.6307   20.0028   20.7899 H   0  0  0  0  0  0  0  0  0  0  0  0
   19.8579   20.1222   22.8192 C   0  0  0  0  0  0  0  0  0  0  0  0
   18.9573   19.8157   23.3691 H   0  0  0  0  0  0  0  0  0  0  0  0
   20.7069   19.6012   23.2833 H   0  0  0  0  0  0  0  0  0  0  0  0
   20.0523   21.6456   22.9577 C   0  0  0  0  0  0  0  0  0  0  0  0
   19.2010   22.1909   22.5294 H   0  0  0  0  0  0  0  0  0  0  0  0
   20.1396   21.9298   24.0145 H   0  0  0  0  0  0  0  0  0  0  0  0
   20.9643   21.9737   22.4421 H   0  0  0  0  0  0  0  0  0  0  0  0
  1  2  1  0  0  0  0
  1  3  2  0  0  0  0
  1  4  1  0  0  0  0
  4  5  1  0  0  0  0
  4  6  2  0  0  0  0
  6  7  1  0  0  0  0
  6  8  1  0  0  0  0
  8  9  1  0  0  0  0
  8 10  1  0  0  0  0
  8 11  1  0  0  0  0
 11 12  1  0  0  0  0
 11 13  1  0  0  0  0
 11 14  1  0  0  0  0
 14 15  1  0  0  0  0
 14 16  1  0  0  0  0
 14 17  1  0  0  0  0
M  END
> <VConfSearch Rank>
734

> <Conf_Id>
1

> <Delta U+W>
0.030

> <U+W>
-53.378

> <U>
9.048

> <W>
-62.426

> <W(PB)>
-64.506

> <W(SA)>
2.080

> <Valence>
2.652

> <Coulomb>
5.578

> <VdW>
0.818

> <VdW6>
-4.535

> <VdW12>
5.352

> <Bond>
0.063

> <Angle>
2.579

> <Pdih>
0.010

> <Idih>
0.000

> <Tether>
0.000

$$$$
VeraChem MOL file


 17 16  0  0  0  0  0  0  0  0999 V2000     
   21.8989   17.0129   23.3353 C   0  0  0  0  0  0  0  0  0  0  0  0
   22.3490   16.4788   22.3389 O   0  5  0  0  0  0  0  0  0  0  0  0
   22.4023   16.8890   24.4349 O   0  0  0  0  0  0  0  0  0  0  0  0
   20.6779   17.8566   23.2295 C   0  0  0  0  0  0  0  0  0  0  0  0
   20.3279   18.3036   24.1571 H   0  0  0  0  0  0  0  0  0  0  0  0
   20.0158   18.0825   22.0721 C   0  0  0  0  0  0  0  0  0  0  0  0
   20.3597   17.6423   21.1363 H   0  0  0  0  0  0  0  0  0  0  0  0
   18.7758   18.9457   21.9715 C   0  0  0  0  0  0  0  0  0  0  0  0
   18.1231   18.7547   22.8341 H   0  0  0  0  0  0  0  0  0  0  0  0
   18.1969   18.6645   21.0815 H   0  0  0  0  0  0  0  0  0  0  0  0
   19.1115   20.4522   21.9144 C   0  0  0  0  0  0  0  0  0  0  0  0
   18.1775   21.0299   21.9490 H   0  0  0  0  0  0  0  0  0  0  0  0
   19.6897   20.7369   22.8043 H   0  0  0  0  0  0  0  0  0  0  0  0
   19.8949   20.8357   20.6408 C   0  0  0  0  0  0  0  0  0  0  0  0
   19.3297   20.5715   19.7376 H   0  0  0  0  0  0  0  0  0  0  0  0
   20.0869   21.9162   20.6166 H   0  0  0  0  0  0  0  0  0  0  0  0
   20.8638   20.3209   20.6018 H   0  0  0  0  0  0  0  0  0  0  0  0
  1  2  1  0  0  0  0
  1  3  2  0  0  0  0
  1  4  1  0  0  0  0
  4  5  1  0  0  0  0
  4  6  2  0  0  0  0
  6  7  1  0  0  0  0
  6  8  1  0  0  0  0
  8  9  1  0  0  0  0
  8 10  1  0  0  0  0
  8 11  1  0  0  0  0
 11 12  1  0  0  0  0
 11 13  1  0  0  0  0
 11 14  1  0  0  0  0
 14 15  1  0  0  0  0
 14 16  1  0  0  0  0
 14 17  1  0  0  0  0
M  END
> <VConfSearch Rank>
735

> <Conf_Id>
3

> <Delta U+W>
0.531

> <U+W>
-52.878

> <U>
10.067

> <W>
-62.945

> <W(PB)>
-64.982

> <W(SA)>
2.037

> <Valence>
2.779

> <Coulomb>
6.474

> <VdW>
0.815

> <VdW6>
-5.088

> <VdW12>
5.902

> <Bond>
0.078

> <Angle>
2.651

> <Pdih>
0.050

> <Idih>
0.000

> <Tether>
0.000

$$$$
VeraChem MOL file


 17 16  0  0  0  0  0  0  0  0999 V2000     
   21.5587   20.0895   19.7024 C   0  0  0  0  0  0  0  0  0  0  0  0
   22.7621   20.1845   19.5587 O   0  5  0  0  0  0  0  0  0  0  0  0
   20.7618   20.7179   19.0313 O   0  0  0  0  0  0  0  0  0  0  0  0
   21.0632   19.1551   20.7491 C   0  0  0  0  0  0  0  0  0  0  0  0
   21.8282   18.6253   21.3120 H   0  0  0  0  0  0  0  0  0  0  0  0
   19.7534   18.9519   21.0190 C   0  0  0  0  0  0  0  0  0  0  0  0
   18.9806   19.4813   20.4623 H   0  0  0  0  0  0  0  0  0  0  0  0
   19.2522   18.0020   22.0871 C   0  0  0  0  0  0  0  0  0  0  0  0
   20.0433   17.2989   22.3810 H   0  0  0  0  0  0  0  0  0  0  0  0
   18.4400   17.3912   21.6708 H   0  0  0  0  0  0  0  0  0  0  0  0
   18.7297   18.7465   23.3352 C   0  0  0  0  0  0  0  0  0  0  0  0
   17.9400   19.4521   23.0417 H   0  0  0  0  0  0  0  0  0  0  0  0
   18.2647   18.0210   24.0169 H   0  0  0  0  0  0  0  0  0  0  0  0
   19.8468   19.4998   24.0885 C   0  0  0  0  0  0  0  0  0  0  0  0
   20.2933   20.2798   23.4582 H   0  0  0  0  0  0  0  0  0  0  0  0
   19.4469   19.9833   24.9892 H   0  0  0  0  0  0  0  0  0  0  0  0
   20.6441   18.8118   24.3985 H   0  0  0  0  0  0  0  0  0  0  0  0
  1  2  1  0  0  0  0
  1  3  2  0  0  0  0
  1  4  1  0  0  0  0
  4  5  1  0  0  0  0
  4  6  2  0  0  0  0
  6  7  1  0  0  0  0
  6  8  1  0  0  0  0
  8  9  1  0  0  0  0
  8 10  1  0  0  0  0
  8 11  1  0  0  0  0
 11 12  1  0  0  0  0
 11 13  1  0  0  0  0
 11 14  1  0  0  0  0
 14 15  1  0  0  0  0
 14 16  1  0  0  0  0
 14 17  1  0  0  0  0
M  END
> <VConfSearch Rank>
736

> <Conf_Id>
45

> <Delta U+W>
0.562

> <U+W>
-52.846

> <U>
10.243

> <W>
-63.089

> <W(PB)>
-65.116

> <W(SA)>
2.026

> <Valence>
2.822

> <Coulomb>
6.637

> <VdW>
0.785

> <VdW6>
-5.216

> <VdW12>
6.001

> <Bond>
0.080

> <Angle>
2.678

> <Pdih>
0.064

> <Idih>
0.000

> <Tether>
0.000

$$$$
VeraChem MOL file


 17 16  0  0  0  0  0  0  0  0999 V2000     
   18.6291   20.5481   19.1801 C   0  0  0  0  0  0  0  0  0  0  0  0
   17.6746   20.1886   18.5189 O   0  5  0  0  0  0  0  0  0  0  0  0
   19.4074   21.4049   18.8053 O   0  0  0  0  0  0  0  0  0  0  0  0
   18.8329   19.8982   20.5031 C   0  0  0  0  0  0  0  0  0  0  0  0
   18.1018   19.1412   20.7777 H   0  0  0  0  0  0  0  0  0  0  0  0
   19.8510   20.1982   21.3414 C   0  0  0  0  0  0  0  0  0  0  0  0
   20.5904   20.9533   21.0752 H   0  0  0  0  0  0  0  0  0  0  0  0
   20.0523   19.5309   22.6843 C   0  0  0  0  0  0  0  0  0  0  0  0
   19.0812   19.3631   23.1697 H   0  0  0  0  0  0  0  0  0  0  0  0
   20.6207   20.1989   23.3454 H   0  0  0  0  0  0  0  0  0  0  0  0
   20.8002   18.1898   22.5389 C   0  0  0  0  0  0  0  0  0  0  0  0
   20.2306   17.5187   21.8811 H   0  0  0  0  0  0  0  0  0  0  0  0
   21.7719   18.3605   22.0551 H   0  0  0  0  0  0  0  0  0  0  0  0
   21.0177   17.5078   23.9046 C   0  0  0  0  0  0  0  0  0  0  0  0
   21.6127   18.1451   24.5718 H   0  0  0  0  0  0  0  0  0  0  0  0
   20.0587   17.2977   24.3960 H   0  0  0  0  0  0  0  0  0  0  0  0
   21.5507   16.5560   23.7810 H   0  0  0  0  0  0  0  0  0  0  0  0
  1  2  1  0  0  0  0
  1  3  2  0  0  0  0
  1  4  1  0  0  0  0
  4  5  1  0  0  0  0
  4  6  2  0  0  0  0
  6  7  1  0  0  0  0
  6  8  1  0  0  0  0
  8  9  1  0  0  0  0
  8 10  1  0  0  0  0
  8 11  1  0  0  0  0
 11 12  1  0  0  0  0
 11 13  1  0  0  0  0
 11 14  1  0  0  0  0
 14 15  1  0  0  0  0
 14 16  1  0  0  0  0
 14 17  1  0  0  0  0
M  END
> <VConfSearch Rank>
737

> <Conf_Id>
36

> <Delta U+W>
0.000

> <U+W>
-53.409

> <U>
9.048

> <W>
-62.457

> <W(PB)>
-64.540

> <W(SA)>
2.084

> <Valence>
2.652

> <Coulomb>
5.578

> <VdW>
0.818

> <VdW6>
-4.534

> <VdW12>
5.352

> <Bond>
0.063

> <Angle>
2.579

> <Pdih>
0.010

> <Idih>
0.000

> <Tether>
0.000

$$$$
VeraChem MOL file


 17 16  0  0  0  0  0  0  0  0999 V2000     
   17.5317   17.5650   20.2167 C   0  0  0  0  0  0  0  0  0  0  0  0
   17.9248   16.4450   19.9494 O   0  5  0  0  0  0  0  0  0  0  0  0
   16.5195   18.0404   19.7402 O   0  0  0  0  0  0  0  0  0  0  0  0
   18.3061   18.4084   21.1670 C   0  0  0  0  0  0  0  0  0  0  0  0
   17.9001   19.3983   21.3625 H   0  0  0  0  0  0  0  0  0  0  0  0
   19.4488   18.0092   21.7703 C   0  0  0  0  0  0  0  0  0  0  0  0
   19.8656   17.0204   21.5799 H   0  0  0  0  0  0  0  0  0  0  0  0
   20.2314   18.8740   22.7342 C   0  0  0  0  0  0  0  0  0  0  0  0
   20.8207   18.2354   23.4059 H   0  0  0  0  0  0  0  0  0  0  0  0
   19.5421   19.4451   23.3709 H   0  0  0  0  0  0  0  0  0  0  0  0
   21.1710   19.8413   21.9856 C   0  0  0  0  0  0  0  0  0  0  0  0
   21.8608   19.2677   21.3511 H   0  0  0  0  0  0  0  0  0  0  0  0
   20.5824   20.4838   21.3160 H   0  0  0  0  0  0  0  0  0  0  0  0
   21.9792   20.7200   22.9614 C   0  0  0  0  0  0  0  0  0  0  0  0
   22.6017   20.1029   23.6225 H   0  0  0  0  0  0  0  0  0  0  0  0
   22.6413   21.4010   22.4110 H   0  0  0  0  0  0  0  0  0  0  0  0
   21.3124   21.3278   23.5871 H   0  0  0  0  0  0  0  0  0  0  0  0
  1  2  1  0  0  0  0
  1  3  2  0  0  0  0
  1  4  1  0  0  0  0
  4  5  1  0  0  0  0
  4  6  2  0  0  0  0
  6  7  1  0  0  0  0
  6  8  1  0  0  0  0
  8  9  1  0  0  0  0
  8 10  1  0  0  0  0
  8 11  1  0  0  0  0
 11 12  1  0  0  0  0
 11 13  1  0  0  0  0
 11 14  1  0  0  0  0
 14 15  1  0  0  0  0
 14 16  1  0  0  0  0
 14 17  1  0  0  0  0
M  END
> <VConfSearch Rank>
738

> <Conf_Id>
1

> <Delta U+W>
0.030

> <U+W>
-53.378

> <U>
9.048

> <W>
-62.426

> <W(PB)>
-64.506

> <W(SA)>
2.080

> <Valence>
2.652

> <Coulomb>
5.578

> <VdW>
0.818

> <VdW6>
-4.535

> <VdW12>
5.352

> <Bond>
0.063

> <Angle>
2.579

> <Pdih>
0.010

> <Idih>
0.000

> <Tether>
0.000

$$$$
VeraChem MOL file


 17 16  0  0  0  0  0  0  0  0999 V2000     
   18.5771   21.7194   21.3410 C   0  0  0  0  0  0  0  0  0  0  0  0
   17.4253   21.4112   21.5833 O   0  5  0  0  0  0  0  0  0  0  0  0
   18.9359   22.8723   21.1997 O   0  0  0  0  0  0  0  0  0  0  0  0
   19.6094   20.6566   21.2035 C   0  0  0  0  0  0  0  0  0  0  0  0
   20.6182   20.9999   20.9859 H   0  0  0  0  0  0  0  0  0  0  0  0
   19.3531   19.3354   21.3363 C   0  0  0  0  0  0  0  0  0  0  0  0
   18.3467   18.9806   21.5576 H   0  0  0  0  0  0  0  0  0  0  0  0
   20.4098   18.2595   21.1988 C   0  0  0  0  0  0  0  0  0  0  0  0
   21.0809   18.5068   20.3651 H   0  0  0  0  0  0  0  0  0  0  0  0
   19.9366   17.3033   20.9376 H   0  0  0  0  0  0  0  0  0  0  0  0
   21.2446   18.0877   22.4869 C   0  0  0  0  0  0  0  0  0  0  0  0
   22.0579   17.3742   22.2953 H   0  0  0  0  0  0  0  0  0  0  0  0
   21.7203   19.0426   22.7501 H   0  0  0  0  0  0  0  0  0  0  0  0
   20.4000   17.5824   23.6761 C   0  0  0  0  0  0  0  0  0  0  0  0
   19.9245   16.6216   23.4398 H   0  0  0  0  0  0  0  0  0  0  0  0
   21.0299   17.4397   24.5636 H   0  0  0  0  0  0  0  0  0  0  0  0
   19.6114   18.3008   23.9353 H   0  0  0  0  0  0  0  0  0  0  0  0
  1  2  1  0  0  0  0
  1  3  2  0  0  0  0
  1  4  1  0  0  0  0
  4  5  1  0  0  0  0
  4  6  2  0  0  0  0
  6  7  1  0  0  0  0
  6  8  1  0  0  0  0
  8  9  1  0  0  0  0
  8 10  1  0  0  0  0
  8 11  1  0  0  0  0
 11 12  1  0  0  0  0
 11 13  1  0  0  0  0
 11 14  1  0  0  0  0
 14 15  1  0  0  0  0
 14 16  1  0  0  0  0
 14 17  1  0  0  0  0
M  END
> <VConfSearch Rank>
739

> <Conf_Id>
3

> <Delta U+W>
0.531

> <U+W>
-52.878

> <U>
10.067

> <W>
-62.945

> <W(PB)>
-64.982

> <W(SA)>
2.037

> <Valence>
2.779

> <Coulomb>
6.474

> <VdW>
0.815

> <VdW6>
-5.088

> <VdW12>
5.902

> <Bond>
0.078

> <Angle>
2.651

> <Pdih>
0.050

> <Idih>
0.000

> <Tether>
0.000

$$$$
VeraChem MOL file


 17 16  0  0  0  0  0  0  0  0999 V2000     
   18.0778   21.3630   21.4539 C   0  0  0  0  0  0  0  0  0  0  0  0
   18.1641   22.2376   20.6140 O   0  5  0  0  0  0  0  0  0  0  0  0
   17.3674   21.4594   22.4370 O   0  0  0  0  0  0  0  0  0  0  0  0
   18.8833   20.1292   21.2467 C   0  0  0  0  0  0  0  0  0  0  0  0
   19.4959   20.1086   20.3484 H   0  0  0  0  0  0  0  0  0  0  0  0
   18.8865   19.0793   22.0994 C   0  0  0  0  0  0  0  0  0  0  0  0
   18.2784   19.0933   23.0037 H   0  0  0  0  0  0  0  0  0  0  0  0
   19.7097   17.8257   21.8872 C   0  0  0  0  0  0  0  0  0  0  0  0
   20.0413   17.7534   20.8424 H   0  0  0  0  0  0  0  0  0  0  0  0
   19.0770   16.9465   22.0682 H   0  0  0  0  0  0  0  0  0  0  0  0
   20.9346   17.7630   22.8257 C   0  0  0  0  0  0  0  0  0  0  0  0
   20.6041   17.8379   23.8710 H   0  0  0  0  0  0  0  0  0  0  0  0
   21.4181   16.7821   22.7190 H   0  0  0  0  0  0  0  0  0  0  0  0
   21.9693   18.8688   22.5266 C   0  0  0  0  0  0  0  0  0  0  0  0
   21.5399   19.8665   22.6855 H   0  0  0  0  0  0  0  0  0  0  0  0
   22.8418   18.7694   23.1852 H   0  0  0  0  0  0  0  0  0  0  0  0
   22.3196   18.8081   21.4880 H   0  0  0  0  0  0  0  0  0  0  0  0
  1  2  1  0  0  0  0
  1  3  2  0  0  0  0
  1  4  1  0  0  0  0
  4  5  1  0  0  0  0
  4  6  2  0  0  0  0
  6  7  1  0  0  0  0
  6  8  1  0  0  0  0
  8  9  1  0  0  0  0
  8 10  1  0  0  0  0
  8 11  1  0  0  0  0
 11 12  1  0  0  0  0
 11 13  1  0  0  0  0
 11 14  1  0  0  0  0
 14 15  1  0  0  0  0
 14 16  1  0  0  0  0
 14 17  1  0  0  0  0
M  END
> <VConfSearch Rank>
740

> <Conf_Id>
45

> <Delta U+W>
0.562

> <U+W>
-52.846

> <U>
10.243

> <W>
-63.089

> <W(PB)>
-65.116

> <W(SA)>
2.026

> <Valence>
2.822

> <Coulomb>
6.637

> <VdW>
0.785

> <VdW6>
-5.216

> <VdW12>
6.001

> <Bond>
0.080

> <Angle>
2.678

> <Pdih>
0.064

> <Idih>
0.000

> <Tether>
0.000

$$$$
VeraChem MOL file


 17 16  0  0  0  0  0  0  0  0999 V2000     
   21.6089   16.8574   23.8262 C   0  0  0  0  0  0  0  0  0  0  0  0
   22.7755   16.8316   24.1671 O   0  5  0  0  0  0  0  0  0  0  0  0
   20.8624   15.9049   23.9526 O   0  0  0  0  0  0  0  0  0  0  0  0
   21.0941   18.1208   23.2321 C   0  0  0  0  0  0  0  0  0  0  0  0
   21.8126   18.9329   23.1477 H   0  0  0  0  0  0  0  0  0  0  0  0
   19.8210   18.2906   22.8086 C   0  0  0  0  0  0  0  0  0  0  0  0
   19.0934   17.4828   22.8863 H   0  0  0  0  0  0  0  0  0  0  0  0
   19.3059   19.5782   22.2035 C   0  0  0  0  0  0  0  0  0  0  0  0
   19.7437   20.4399   22.7256 H   0  0  0  0  0  0  0  0  0  0  0  0
   18.2192   19.6439   22.3487 H   0  0  0  0  0  0  0  0  0  0  0  0
   19.6315   19.6612   20.6981 C   0  0  0  0  0  0  0  0  0  0  0  0
   20.7188   19.5998   20.5514 H   0  0  0  0  0  0  0  0  0  0  0  0
   19.1909   18.7994   20.1778 H   0  0  0  0  0  0  0  0  0  0  0  0
   19.1015   20.9667   20.0717 C   0  0  0  0  0  0  0  0  0  0  0  0
   18.0109   21.0384   20.1765 H   0  0  0  0  0  0  0  0  0  0  0  0
   19.5509   21.8446   20.5542 H   0  0  0  0  0  0  0  0  0  0  0  0
   19.3425   21.0078   19.0015 H   0  0  0  0  0  0  0  0  0  0  0  0
  1  2  1  0  0  0  0
  1  3  2  0  0  0  0
  1  4  1  0  0  0  0
  4  5  1  0  0  0  0
  4  6  2  0  0  0  0
  6  7  1  0  0  0  0
  6  8  1  0  0  0  0
  8  9  1  0  0  0  0
  8 10  1  0  0  0  0
  8 11  1  0  0  0  0
 11 12  1  0  0  0  0
 11 13  1  0  0  0  0
 11 14  1  0  0  0  0
 14 15  1  0  0  0  0
 14 16  1  0  0  0  0
 14 17  1  0  0  0  0
M  END
> <VConfSearch Rank>
741

> <Conf_Id>
36

> <Delta U+W>
0.000

> <U+W>
-53.409

> <U>
9.048

> <W>
-62.457

> <W(PB)>
-64.540

> <W(SA)>
2.084

> <Valence>
2.652

> <Coulomb>
5.578

> <VdW>
0.818

> <VdW6>
-4.534

> <VdW12>
5.352

> <Bond>
0.063

> <Angle>
2.579

> <Pdih>
0.010

> <Idih>
0.000

> <Tether>
0.000

$$$$
VeraChem MOL file


 17 16  0  0  0  0  0  0  0  0999 V2000     
   18.9014   20.9774   19.3466 C   0  0  0  0  0  0  0  0  0  0  0  0
   19.6363   21.9444   19.2746 O   0  5  0  0  0  0  0  0  0  0  0  0
   17.8618   20.8905   18.7226 O   0  0  0  0  0  0  0  0  0  0  0  0
   19.2707   19.8379   20.2294 C   0  0  0  0  0  0  0  0  0  0  0  0
   18.5709   19.0055   20.2477 H   0  0  0  0  0  0  0  0  0  0  0  0
   20.3949   19.7997   20.9803 C   0  0  0  0  0  0  0  0  0  0  0  0
   21.1018   20.6291   20.9711 H   0  0  0  0  0  0  0  0  0  0  0  0
   20.7622   18.6376   21.8769 C   0  0  0  0  0  0  0  0  0  0  0  0
   21.8506   18.6148   22.0222 H   0  0  0  0  0  0  0  0  0  0  0  0
   20.4916   17.6894   21.3926 H   0  0  0  0  0  0  0  0  0  0  0  0
   20.0607   18.7412   23.2467 C   0  0  0  0  0  0  0  0  0  0  0  0
   20.3345   19.6893   23.7300 H   0  0  0  0  0  0  0  0  0  0  0  0
   18.9714   18.7600   23.1034 H   0  0  0  0  0  0  0  0  0  0  0  0
   20.4372   17.5651   24.1700 C   0  0  0  0  0  0  0  0  0  0  0  0
   21.5190   17.5419   24.3557 H   0  0  0  0  0  0  0  0  0  0  0  0
   19.9290   17.6560   25.1389 H   0  0  0  0  0  0  0  0  0  0  0  0
   20.1452   16.6057   23.7230 H   0  0  0  0  0  0  0  0  0  0  0  0
  1  2  1  0  0  0  0
  1  3  2  0  0  0  0
  1  4  1  0  0  0  0
  4  5  1  0  0  0  0
  4  6  2  0  0  0  0
  6  7  1  0  0  0  0
  6  8  1  0  0  0  0
  8  9  1  0  0  0  0
  8 10  1  0  0  0  0
  8 11  1  0  0  0  0
 11 12  1  0  0  0  0
 11 13  1  0  0  0  0
 11 14  1  0  0  0  0
 14 15  1  0  0  0  0
 14 16  1  0  0  0  0
 14 17  1  0  0  0  0
M  END
> <VConfSearch Rank>
742

> <Conf_Id>
1

> <Delta U+W>
0.030

> <U+W>
-53.378

> <U>
9.048

> <W>
-62.426

> <W(PB)>
-64.506

> <W(SA)>
2.080

> <Valence>
2.652

> <Coulomb>
5.578

> <VdW>
0.818

> <VdW6>
-4.535

> <VdW12>
5.352

> <Bond>
0.063

> <Angle>
2.579

> <Pdih>
0.010

> <Idih>
0.000

> <Tether>
0.000

$$$$
VeraChem MOL file


 17 16  0  0  0  0  0  0  0  0999 V2000     
   22.8442   20.2824   21.7720 C   0  0  0  0  0  0  0  0  0  0  0  0
   22.6174   21.2082   21.0157 O   0  5  0  0  0  0  0  0  0  0  0  0
   23.8710   20.1935   22.4167 O   0  0  0  0  0  0  0  0  0  0  0  0
   21.8379   19.1977   21.9291 C   0  0  0  0  0  0  0  0  0  0  0  0
   22.1032   18.4003   22.6194 H   0  0  0  0  0  0  0  0  0  0  0  0
   20.6537   19.1680   21.2765 C   0  0  0  0  0  0  0  0  0  0  0  0
   20.3763   19.9635   20.5852 H   0  0  0  0  0  0  0  0  0  0  0  0
   19.6326   18.0625   21.4444 C   0  0  0  0  0  0  0  0  0  0  0  0
   20.1450   17.0921   21.4929 H   0  0  0  0  0  0  0  0  0  0  0  0
   18.9801   18.0204   20.5620 H   0  0  0  0  0  0  0  0  0  0  0  0
   18.7726   18.2448   22.7143 C   0  0  0  0  0  0  0  0  0  0  0  0
   18.1268   17.3649   22.8402 H   0  0  0  0  0  0  0  0  0  0  0  0
   19.4227   18.2861   23.5992 H   0  0  0  0  0  0  0  0  0  0  0  0
   17.8930   19.5120   22.6560 C   0  0  0  0  0  0  0  0  0  0  0  0
   17.2251   19.4866   21.7851 H   0  0  0  0  0  0  0  0  0  0  0  0
   17.2717   19.5922   23.5574 H   0  0  0  0  0  0  0  0  0  0  0  0
   18.5084   20.4187   22.5898 H   0  0  0  0  0  0  0  0  0  0  0  0
  1  2  1  0  0  0  0
  1  3  2  0  0  0  0
  1  4  1  0  0  0  0
  4  5  1  0  0  0  0
  4  6  2  0  0  0  0
  6  7  1  0  0  0  0
  6  8  1  0  0  0  0
  8  9  1  0  0  0  0
  8 10  1  0  0  0  0
  8 11  1  0  0  0  0
 11 12  1  0  0  0  0
 11 13  1  0  0  0  0
 11 14  1  0  0  0  0
 14 15  1  0  0  0  0
 14 16  1  0  0  0  0
 14 17  1  0  0  0  0
M  END
> <VConfSearch Rank>
743

> <Conf_Id>
3

> <Delta U+W>
0.531

> <U+W>
-52.878

> <U>
10.067

> <W>
-62.945

> <W(PB)>
-64.982

> <W(SA)>
2.037

> <Valence>
2.779

> <Coulomb>
6.474

> <VdW>
0.815

> <VdW6>
-5.088

> <VdW12>
5.902

> <Bond>
0.078

> <Angle>
2.651

> <Pdih>
0.050

> <Idih>
0.000

> <Tether>
0.000

$$$$
VeraChem MOL file


 17 16  0  0  0  0  0  0  0  0999 V2000     
   22.4751   19.0254   23.7714 C   0  0  0  0  0  0  0  0  0  0  0  0
   22.9300   18.1186   24.4411 O   0  5  0  0  0  0  0  0  0  0  0  0
   22.7690   20.1921   23.9527 O   0  0  0  0  0  0  0  0  0  0  0  0
   21.5218   18.6672   22.6865 C   0  0  0  0  0  0  0  0  0  0  0  0
   21.3028   17.6074   22.5788 H   0  0  0  0  0  0  0  0  0  0  0  0
   20.9380   19.5716   21.8673 C   0  0  0  0  0  0  0  0  0  0  0  0
   21.1490   20.6357   21.9707 H   0  0  0  0  0  0  0  0  0  0  0  0
   19.9657   19.2041   20.7655 C   0  0  0  0  0  0  0  0  0  0  0  0
   20.0394   18.1345   20.5260 H   0  0  0  0  0  0  0  0  0  0  0  0
   20.2428   19.7419   19.8490 H   0  0  0  0  0  0  0  0  0  0  0  0
   18.5066   19.5548   21.1303 C   0  0  0  0  0  0  0  0  0  0  0  0
   18.4325   20.6240   21.3727 H   0  0  0  0  0  0  0  0  0  0  0  0
   17.8674   19.3870   20.2526 H   0  0  0  0  0  0  0  0  0  0  0  0
   17.9712   18.7156   22.3101 C   0  0  0  0  0  0  0  0  0  0  0  0
   18.5469   18.9060   23.2252 H   0  0  0  0  0  0  0  0  0  0  0  0
   16.9218   18.9635   22.5154 H   0  0  0  0  0  0  0  0  0  0  0  0
   18.0288   17.6424   22.0864 H   0  0  0  0  0  0  0  0  0  0  0  0
  1  2  1  0  0  0  0
  1  3  2  0  0  0  0
  1  4  1  0  0  0  0
  4  5  1  0  0  0  0
  4  6  2  0  0  0  0
  6  7  1  0  0  0  0
  6  8  1  0  0  0  0
  8  9  1  0  0  0  0
  8 10  1  0  0  0  0
  8 11  1  0  0  0  0
 11 12  1  0  0  0  0
 11 13  1  0  0  0  0
 11 14  1  0  0  0  0
 14 15  1  0  0  0  0
 14 16  1  0  0  0  0
 14 17  1  0  0  0  0
M  END
> <VConfSearch Rank>
744

> <Conf_Id>
45

> <Delta U+W>
0.562

> <U+W>
-52.846

> <U>
10.243

> <W>
-63.089

> <W(PB)>
-65.116

> <W(SA)>
2.026

> <Valence>
2.822

> <Coulomb>
6.637

> <VdW>
0.785

> <VdW6>
-5.216

> <VdW12>
6.001

> <Bond>
0.080

> <Angle>
2.678

> <Pdih>
0.064

> <Idih>
0.000

> <Tether>
0.000

$$$$
VeraChem MOL file


 17 16  0  0  0  0  0  0  0  0999 V2000     
   23.0062   17.8941   22.8092 C   0  0  0  0  0  0  0  0  0  0  0  0
   23.8309   18.3611   23.5705 O   0  5  0  0  0  0  0  0  0  0  0  0
   23.2527   16.9747   22.0513 O   0  0  0  0  0  0  0  0  0  0  0  0
   21.6423   18.4887   22.8242 C   0  0  0  0  0  0  0  0  0  0  0  0
   21.4888   19.3066   23.5245 H   0  0  0  0  0  0  0  0  0  0  0  0
   20.6290   18.0705   22.0321 C   0  0  0  0  0  0  0  0  0  0  0  0
   20.7725   17.2535   21.3253 H   0  0  0  0  0  0  0  0  0  0  0  0
   19.2452   18.6821   22.0521 C   0  0  0  0  0  0  0  0  0  0  0  0
   18.9599   18.9321   23.0831 H   0  0  0  0  0  0  0  0  0  0  0  0
   18.5125   17.9459   21.6950 H   0  0  0  0  0  0  0  0  0  0  0  0
   19.1771   19.9469   21.1719 C   0  0  0  0  0  0  0  0  0  0  0  0
   19.9068   20.6862   21.5306 H   0  0  0  0  0  0  0  0  0  0  0  0
   19.4609   19.6939   20.1409 H   0  0  0  0  0  0  0  0  0  0  0  0
   17.7672   20.5711   21.1794 C   0  0  0  0  0  0  0  0  0  0  0  0
   17.0218   19.8627   20.7949 H   0  0  0  0  0  0  0  0  0  0  0  0
   17.4717   20.8618   22.1961 H   0  0  0  0  0  0  0  0  0  0  0  0
   17.7384   21.4690   20.5484 H   0  0  0  0  0  0  0  0  0  0  0  0
  1  2  1  0  0  0  0
  1  3  2  0  0  0  0
  1  4  1  0  0  0  0
  4  5  1  0  0  0  0
  4  6  2  0  0  0  0
  6  7  1  0  0  0  0
  6  8  1  0  0  0  0
  8  9  1  0  0  0  0
  8 10  1  0  0  0  0
  8 11  1  0  0  0  0
 11 12  1  0  0  0  0
 11 13  1  0  0  0  0
 11 14  1  0  0  0  0
 14 15  1  0  0  0  0
 14 16  1  0  0  0  0
 14 17  1  0  0  0  0
M  END
> <VConfSearch Rank>
745

> <Conf_Id>
36

> <Delta U+W>
0.000

> <U+W>
-53.409

> <U>
9.048

> <W>
-62.457

> <W(PB)>
-64.540

> <W(SA)>
2.084

> <Valence>
2.652

> <Coulomb>
5.578

> <VdW>
0.818

> <VdW6>
-4.534

> <VdW12>
5.352

> <Bond>
0.063

> <Angle>
2.579

> <Pdih>
0.010

> <Idih>
0.000

> <Tether>
0.000

$$$$
VeraChem MOL file


 17 16  0  0  0  0  0  0  0  0999 V2000     
   17.3743   18.2408   19.9947 C   0  0  0  0  0  0  0  0  0  0  0  0
   17.8229   17.7450   18.9781 O   0  5  0  0  0  0  0  0  0  0  0  0
   16.2024   18.5370   20.1230 O   0  0  0  0  0  0  0  0  0  0  0  0
   18.2801   18.5043   21.1454 C   0  0  0  0  0  0  0  0  0  0  0  0
   17.8157   18.9483   22.0230 H   0  0  0  0  0  0  0  0  0  0  0  0
   19.6037   18.2266   21.1418 C   0  0  0  0  0  0  0  0  0  0  0  0
   20.0797   17.7837   20.2671 H   0  0  0  0  0  0  0  0  0  0  0  0
   20.5183   18.4995   22.3158 C   0  0  0  0  0  0  0  0  0  0  0  0
   21.3843   17.8253   22.2718 H   0  0  0  0  0  0  0  0  0  0  0  0
   19.9973   18.2779   23.2572 H   0  0  0  0  0  0  0  0  0  0  0  0
   21.0038   19.9635   22.3216 C   0  0  0  0  0  0  0  0  0  0  0  0
   21.5264   20.1820   21.3800 H   0  0  0  0  0  0  0  0  0  0  0  0
   20.1386   20.6393   22.3697 H   0  0  0  0  0  0  0  0  0  0  0  0
   21.9441   20.2473   23.5102 C   0  0  0  0  0  0  0  0  0  0  0  0
   22.8343   19.6060   23.4689 H   0  0  0  0  0  0  0  0  0  0  0  0
   22.2787   21.2928   23.4975 H   0  0  0  0  0  0  0  0  0  0  0  0
   21.4349   20.0661   24.4659 H   0  0  0  0  0  0  0  0  0  0  0  0
  1  2  1  0  0  0  0
  1  3  2  0  0  0  0
  1  4  1  0  0  0  0
  4  5  1  0  0  0  0
  4  6  2  0  0  0  0
  6  7  1  0  0  0  0
  6  8  1  0  0  0  0
  8  9  1  0  0  0  0
  8 10  1  0  0  0  0
  8 11  1  0  0  0  0
 11 12  1  0  0  0  0
 11 13  1  0  0  0  0
 11 14  1  0  0  0  0
 14 15  1  0  0  0  0
 14 16  1  0  0  0  0
 14 17  1  0  0  0  0
M  END
> <VConfSearch Rank>
746

> <Conf_Id>
1

> <Delta U+W>
0.030

> <U+W>
-53.378

> <U>
9.048

> <W>
-62.426

> <W(PB)>
-64.506

> <W(SA)>
2.080

> <Valence>
2.652

> <Coulomb>
5.578

> <VdW>
0.818

> <VdW6>
-4.535

> <VdW12>
5.352

> <Bond>
0.063

> <Angle>
2.579

> <Pdih>
0.010

> <Idih>
0.000

> <Tether>
0.000

$$$$
VeraChem MOL file


 17 16  0  0  0  0  0  0  0  0999 V2000     
   22.6046   19.6489   20.4732 C   0  0  0  0  0  0  0  0  0  0  0  0
   23.2728   18.6857   20.7991 O   0  5  0  0  0  0  0  0  0  0  0  0
   22.8848   20.3560   19.5249 O   0  0  0  0  0  0  0  0  0  0  0  0
   21.3886   19.9991   21.2560 C   0  0  0  0  0  0  0  0  0  0  0  0
   20.8377   20.8715   20.9123 H   0  0  0  0  0  0  0  0  0  0  0  0
   20.9581   19.3016   22.3317 C   0  0  0  0  0  0  0  0  0  0  0  0
   21.5006   18.4241   22.6827 H   0  0  0  0  0  0  0  0  0  0  0  0
   19.7171   19.6618   23.1213 C   0  0  0  0  0  0  0  0  0  0  0  0
   19.6588   20.7524   23.2385 H   0  0  0  0  0  0  0  0  0  0  0  0
   19.7879   19.2482   24.1363 H   0  0  0  0  0  0  0  0  0  0  0  0
   18.4235   19.1553   22.4463 C   0  0  0  0  0  0  0  0  0  0  0  0
   17.5557   19.5342   23.0034 H   0  0  0  0  0  0  0  0  0  0  0  0
   18.3493   19.5686   21.4308 H   0  0  0  0  0  0  0  0  0  0  0  0
   18.3515   17.6146   22.3871 C   0  0  0  0  0  0  0  0  0  0  0  0
   18.4112   17.1797   23.3933 H   0  0  0  0  0  0  0  0  0  0  0  0
   17.4065   17.2896   21.9329 H   0  0  0  0  0  0  0  0  0  0  0  0
   19.1727   17.2025   21.7862 H   0  0  0  0  0  0  0  0  0  0  0  0
  1  2  1  0  0  0  0
  1  3  2  0  0  0  0
  1  4  1  0  0  0  0
  4  5  1  0  0  0  0
  4  6  2  0  0  0  0
  6  7  1  0  0  0  0
  6  8  1  0  0  0  0
  8  9  1  0  0  0  0
  8 10  1  0  0  0  0
  8 11  1  0  0  0  0
 11 12  1  0  0  0  0
 11 13  1  0  0  0  0
 11 14  1  0  0  0  0
 14 15  1  0  0  0  0
 14 16  1  0  0  0  0
 14 17  1  0  0  0  0
M  END
> <VConfSearch Rank>
747

> <Conf_Id>
3

> <Delta U+W>
0.531

> <U+W>
-52.878

> <U>
10.067

> <W>
-62.945

> <W(PB)>
-64.982

> <W(SA)>
2.037

> <Valence>
2.779

> <Coulomb>
6.474

> <VdW>
0.815

> <VdW6>
-5.088

> <VdW12>
5.902

> <Bond>
0.078

> <Angle>
2.651

> <Pdih>
0.050

> <Idih>
0.000

> <Tether>
0.000

$$$$
VeraChem MOL file


 17 16  0  0  0  0  0  0  0  0999 V2000     
   21.4701   19.7355   19.5301 C   0  0  0  0  0  0  0  0  0  0  0  0
   21.0837   19.7067   18.3779 O   0  5  0  0  0  0  0  0  0  0  0  0
   22.6474   19.6866   19.8332 O   0  0  0  0  0  0  0  0  0  0  0  0
   20.4394   19.8386   20.5984 C   0  0  0  0  0  0  0  0  0  0  0  0
   19.4071   19.8782   20.2586 H   0  0  0  0  0  0  0  0  0  0  0  0
   20.7251   19.8780   21.9199 C   0  0  0  0  0  0  0  0  0  0  0  0
   21.7565   19.8351   22.2691 H   0  0  0  0  0  0  0  0  0  0  0  0
   19.6734   19.9801   23.0052 C   0  0  0  0  0  0  0  0  0  0  0  0
   18.7172   20.3214   22.5858 H   0  0  0  0  0  0  0  0  0  0  0  0
   19.9796   20.7463   23.7299 H   0  0  0  0  0  0  0  0  0  0  0  0
   19.4661   18.6422   23.7482 C   0  0  0  0  0  0  0  0  0  0  0  0
   20.4227   18.2988   24.1659 H   0  0  0  0  0  0  0  0  0  0  0  0
   18.7924   18.8062   24.6006 H   0  0  0  0  0  0  0  0  0  0  0  0
   18.8706   17.5448   22.8406 C   0  0  0  0  0  0  0  0  0  0  0  0
   19.5479   17.3069   22.0101 H   0  0  0  0  0  0  0  0  0  0  0  0
   18.7008   16.6223   23.4107 H   0  0  0  0  0  0  0  0  0  0  0  0
   17.9091   17.8640   22.4178 H   0  0  0  0  0  0  0  0  0  0  0  0
  1  2  1  0  0  0  0
  1  3  2  0  0  0  0
  1  4  1  0  0  0  0
  4  5  1  0  0  0  0
  4  6  2  0  0  0  0
  6  7  1  0  0  0  0
  6  8  1  0  0  0  0
  8  9  1  0  0  0  0
  8 10  1  0  0  0  0
  8 11  1  0  0  0  0
 11 12  1  0  0  0  0
 11 13  1  0  0  0  0
 11 14  1  0  0  0  0
 14 15  1  0  0  0  0
 14 16  1  0  0  0  0
 14 17  1  0  0  0  0
M  END
> <VConfSearch Rank>
748

> <Conf_Id>
45

> <Delta U+W>
0.562

> <U+W>
-52.846

> <U>
10.243

> <W>
-63.089

> <W(PB)>
-65.116

> <W(SA)>
2.026

> <Valence>
2.822

> <Coulomb>
6.637

> <VdW>
0.785

> <VdW6>
-5.216

> <VdW12>
6.001

> <Bond>
0.080

> <Angle>
2.678

> <Pdih>
0.064

> <Idih>
0.000

> <Tether>
0.000

$$$$
VeraChem MOL file


 17 16  0  0  0  0  0  0  0  0999 V2000     
   18.7876   20.2001   18.9549 C   0  0  0  0  0  0  0  0  0  0  0  0
   17.7706   20.8231   18.7201 O   0  5  0  0  0  0  0  0  0  0  0  0
   19.4459   19.6585   18.0868 O   0  0  0  0  0  0  0  0  0  0  0  0
   19.2273   20.1112   20.3737 C   0  0  0  0  0  0  0  0  0  0  0  0
   18.5944   20.6171   21.0993 H   0  0  0  0  0  0  0  0  0  0  0  0
   20.3359   19.4512   20.7794 C   0  0  0  0  0  0  0  0  0  0  0  0
   20.9758   18.9390   20.0611 H   0  0  0  0  0  0  0  0  0  0  0  0
   20.7748   19.3639   22.2247 C   0  0  0  0  0  0  0  0  0  0  0  0
   20.5881   20.3200   22.7324 H   0  0  0  0  0  0  0  0  0  0  0  0
   21.8587   19.1924   22.2702 H   0  0  0  0  0  0  0  0  0  0  0  0
   20.0411   18.2283   22.9671 C   0  0  0  0  0  0  0  0  0  0  0  0
   18.9566   18.4005   22.9262 H   0  0  0  0  0  0  0  0  0  0  0  0
   20.2310   17.2728   22.4587 H   0  0  0  0  0  0  0  0  0  0  0  0
   20.4899   18.1265   24.4387 C   0  0  0  0  0  0  0  0  0  0  0  0
   21.5665   17.9225   24.5081 H   0  0  0  0  0  0  0  0  0  0  0  0
   20.2822   19.0599   24.9782 H   0  0  0  0  0  0  0  0  0  0  0  0
   19.9575   17.3140   24.9501 H   0  0  0  0  0  0  0  0  0  0  0  0
  1  2  1  0  0  0  0
  1  3  2  0  0  0  0
  1  4  1  0  0  0  0
  4  5  1  0  0  0  0
  4  6  2  0  0  0  0
  6  7  1  0  0  0  0
  6  8  1  0  0  0  0
  8  9  1  0  0  0  0
  8 10  1  0  0  0  0
  8 11  1  0  0  0  0
 11 12  1  0  0  0  0
 11 13  1  0  0  0  0
 11 14  1  0  0  0  0
 14 15  1  0  0  0  0
 14 16  1  0  0  0  0
 14 17  1  0  0  0  0
M  END
> <VConfSearch Rank>
749

> <Conf_Id>
36

> <Delta U+W>
0.000

> <U+W>
-53.409

> <U>
9.048

> <W>
-62.457

> <W(PB)>
-64.540

> <W(SA)>
2.084

> <Valence>
2.652

> <Coulomb>
5.578

> <VdW>
0.818

> <VdW6>
-4.534

> <VdW12>
5.352

> <Bond>
0.063

> <Angle>
2.579

> <Pdih>
0.010

> <Idih>
0.000

> <Tether>
0.000

$$$$
VeraChem MOL file


 17 16  0  0  0  0  0  0  0  0999 V2000     
   16.8027   19.5956   22.8150 C   0  0  0  0  0  0  0  0  0  0  0  0
   16.6869   20.7815   23.0610 O   0  5  0  0  0  0  0  0  0  0  0  0
   15.9411   18.7796   23.0787 O   0  0  0  0  0  0  0  0  0  0  0  0
   18.0438   19.0983   22.1618 C   0  0  0  0  0  0  0  0  0  0  0  0
   18.0831   18.0284   21.9699 H   0  0  0  0  0  0  0  0  0  0  0  0
   19.0824   19.8916   21.8142 C   0  0  0  0  0  0  0  0  0  0  0  0
   19.0545   20.9645   22.0039 H   0  0  0  0  0  0  0  0  0  0  0  0
   20.3419   19.3775   21.1518 C   0  0  0  0  0  0  0  0  0  0  0  0
   20.8157   20.1888   20.5829 H   0  0  0  0  0  0  0  0  0  0  0  0
   20.0907   18.5921   20.4259 H   0  0  0  0  0  0  0  0  0  0  0  0
   21.3386   18.8258   22.1916 C   0  0  0  0  0  0  0  0  0  0  0  0
   21.5899   19.6137   22.9152 H   0  0  0  0  0  0  0  0  0  0  0  0
   20.8674   18.0112   22.7590 H   0  0  0  0  0  0  0  0  0  0  0  0
   22.6291   18.3082   21.5252 C   0  0  0  0  0  0  0  0  0  0  0  0
   23.1377   19.1118   20.9766 H   0  0  0  0  0  0  0  0  0  0  0  0
   23.3253   17.9201   22.2801 H   0  0  0  0  0  0  0  0  0  0  0  0
   22.4084   17.4971   20.8189 H   0  0  0  0  0  0  0  0  0  0  0  0
  1  2  1  0  0  0  0
  1  3  2  0  0  0  0
  1  4  1  0  0  0  0
  4  5  1  0  0  0  0
  4  6  2  0  0  0  0
  6  7  1  0  0  0  0
  6  8  1  0  0  0  0
  8  9  1  0  0  0  0
  8 10  1  0  0  0  0
  8 11  1  0  0  0  0
 11 12  1  0  0  0  0
 11 13  1  0  0  0  0
 11 14  1  0  0  0  0
 14 15  1  0  0  0  0
 14 16  1  0  0  0  0
 14 17  1  0  0  0  0
M  END
> <VConfSearch Rank>
750

> <Conf_Id>
1

> <Delta U+W>
0.030

> <U+W>
-53.378

> <U>
9.048

> <W>
-62.426

> <W(PB)>
-64.506

> <W(SA)>
2.080

> <Valence>
2.652

> <Coulomb>
5.578

> <VdW>
0.818

> <VdW6>
-4.535

> <VdW12>
5.352

> <Bond>
0.063

> <Angle>
2.579

> <Pdih>
0.010

> <Idih>
0.000

> <Tether>
0.000

$$$$
VeraChem MOL file


 17 16  0  0  0  0  0  0  0  0999 V2000     
   17.5905   18.1348   20.4053 C   0  0  0  0  0  0  0  0  0  0  0  0
   16.6975   18.7531   20.9537 O   0  5  0  0  0  0  0  0  0  0  0  0
   17.4560   17.6051   19.3194 O   0  0  0  0  0  0  0  0  0  0  0  0
   18.9131   18.0044   21.0745 C   0  0  0  0  0  0  0  0  0  0  0  0
   19.6664   17.4387   20.5310 H   0  0  0  0  0  0  0  0  0  0  0  0
   19.2037   18.5424   22.2807 C   0  0  0  0  0  0  0  0  0  0  0  0
   18.4576   19.1139   22.8323 H   0  0  0  0  0  0  0  0  0  0  0  0
   20.5535   18.4088   22.9539 C   0  0  0  0  0  0  0  0  0  0  0  0
   20.9371   17.3895   22.8109 H   0  0  0  0  0  0  0  0  0  0  0  0
   20.4446   18.5455   24.0382 H   0  0  0  0  0  0  0  0  0  0  0  0
   21.5856   19.4194   22.4071 C   0  0  0  0  0  0  0  0  0  0  0  0
   22.5671   19.2072   22.8529 H   0  0  0  0  0  0  0  0  0  0  0  0
   21.6977   19.2842   21.3224 H   0  0  0  0  0  0  0  0  0  0  0  0
   21.1991   20.8826   22.7114 C   0  0  0  0  0  0  0  0  0  0  0  0
   21.0938   21.0443   23.7921 H   0  0  0  0  0  0  0  0  0  0  0  0
   21.9693   21.5705   22.3392 H   0  0  0  0  0  0  0  0  0  0  0  0
   20.2490   21.1495   22.2306 H   0  0  0  0  0  0  0  0  0  0  0  0
  1  2  1  0  0  0  0
  1  3  2  0  0  0  0
  1  4  1  0  0  0  0
  4  5  1  0  0  0  0
  4  6  2  0  0  0  0
  6  7  1  0  0  0  0
  6  8  1  0  0  0  0
  8  9  1  0  0  0  0
  8 10  1  0  0  0  0
  8 11  1  0  0  0  0
 11 12  1  0  0  0  0
 11 13  1  0  0  0  0
 11 14  1  0  0  0  0
 14 15  1  0  0  0  0
 14 16  1  0  0  0  0
 14 17  1  0  0  0  0
M  END
> <VConfSearch Rank>
751

> <Conf_Id>
3

> <Delta U+W>
0.531

> <U+W>
-52.878

> <U>
10.067

> <W>
-62.945

> <W(PB)>
-64.982

> <W(SA)>
2.037

> <Valence>
2.779

> <Coulomb>
6.474

> <VdW>
0.815

> <VdW6>
-5.088

> <VdW12>
5.902

> <Bond>
0.078

> <Angle>
2.651

> <Pdih>
0.050

> <Idih>
0.000

> <Tether>
0.000

$$$$
VeraChem MOL file


 17 16  0  0  0  0  0  0  0  0999 V2000     
   19.2003   16.9990   24.1022 C   0  0  0  0  0  0  0  0  0  0  0  0
   18.4247   17.0722   25.0353 O   0  5  0  0  0  0  0  0  0  0  0  0
   20.0757   16.1565   24.0356 O   0  0  0  0  0  0  0  0  0  0  0  0
   19.0506   17.9922   23.0043 C   0  0  0  0  0  0  0  0  0  0  0  0
   18.2488   18.7166   23.1268 H   0  0  0  0  0  0  0  0  0  0  0  0
   19.8432   18.0299   21.9089 C   0  0  0  0  0  0  0  0  0  0  0  0
   20.6511   17.3101   21.7800 H   0  0  0  0  0  0  0  0  0  0  0  0
   19.6900   19.0439   20.7942 C   0  0  0  0  0  0  0  0  0  0  0  0
   18.7008   19.5197   20.8379 H   0  0  0  0  0  0  0  0  0  0  0  0
   19.7361   18.5240   19.8280 H   0  0  0  0  0  0  0  0  0  0  0  0
   20.7893   20.1279   20.8327 C   0  0  0  0  0  0  0  0  0  0  0  0
   21.7792   19.6526   20.7917 H   0  0  0  0  0  0  0  0  0  0  0  0
   20.7053   20.7558   19.9350 H   0  0  0  0  0  0  0  0  0  0  0  0
   20.6947   21.0256   22.0849 C   0  0  0  0  0  0  0  0  0  0  0  0
   20.8389   20.4414   23.0030 H   0  0  0  0  0  0  0  0  0  0  0  0
   21.4653   21.8069   22.0590 H   0  0  0  0  0  0  0  0  0  0  0  0
   19.7149   21.5173   22.1422 H   0  0  0  0  0  0  0  0  0  0  0  0
  1  2  1  0  0  0  0
  1  3  2  0  0  0  0
  1  4  1  0  0  0  0
  4  5  1  0  0  0  0
  4  6  2  0  0  0  0
  6  7  1  0  0  0  0
  6  8  1  0  0  0  0
  8  9  1  0  0  0  0
  8 10  1  0  0  0  0
  8 11  1  0  0  0  0
 11 12  1  0  0  0  0
 11 13  1  0  0  0  0
 11 14  1  0  0  0  0
 14 15  1  0  0  0  0
 14 16  1  0  0  0  0
 14 17  1  0  0  0  0
M  END
> <VConfSearch Rank>
752

> <Conf_Id>
45

> <Delta U+W>
0.562

> <U+W>
-52.846

> <U>
10.243

> <W>
-63.089

> <W(PB)>
-65.116

> <W(SA)>
2.026

> <Valence>
2.822

> <Coulomb>
6.637

> <VdW>
0.785

> <VdW6>
-5.216

> <VdW12>
6.001

> <Bond>
0.080

> <Angle>
2.678

> <Pdih>
0.064

> <Idih>
0.000

> <Tether>
0.000

$$$$
VeraChem MOL file


 17 16  0  0  0  0  0  0  0  0999 V2000     
   19.9138   22.2720   23.1059 C   0  0  0  0  0  0  0  0  0  0  0  0
   18.9765   23.0423   23.1825 O   0  5  0  0  0  0  0  0  0  0  0  0
   21.0697   22.6210   23.2565 O   0  0  0  0  0  0  0  0  0  0  0  0
   19.6089   20.8448   22.8158 C   0  0  0  0  0  0  0  0  0  0  0  0
   18.5564   20.5999   22.6923 H   0  0  0  0  0  0  0  0  0  0  0  0
   20.5507   19.8809   22.7019 C   0  0  0  0  0  0  0  0  0  0  0  0
   21.6083   20.1157   22.8213 H   0  0  0  0  0  0  0  0  0  0  0  0
   20.2323   18.4320   22.4044 C   0  0  0  0  0  0  0  0  0  0  0  0
   19.3181   18.1319   22.9345 H   0  0  0  0  0  0  0  0  0  0  0  0
   21.0393   17.7922   22.7864 H   0  0  0  0  0  0  0  0  0  0  0  0
   20.0580   18.1944   20.8905 C   0  0  0  0  0  0  0  0  0  0  0  0
   19.2481   18.8308   20.5075 H   0  0  0  0  0  0  0  0  0  0  0  0
   20.9743   18.4933   20.3627 H   0  0  0  0  0  0  0  0  0  0  0  0
   19.7424   16.7178   20.5781 C   0  0  0  0  0  0  0  0  0  0  0  0
   20.5524   16.0614   20.9225 H   0  0  0  0  0  0  0  0  0  0  0  0
   18.8128   16.4022   21.0696 H   0  0  0  0  0  0  0  0  0  0  0  0
   19.6218   16.5684   19.4972 H   0  0  0  0  0  0  0  0  0  0  0  0
  1  2  1  0  0  0  0
  1  3  2  0  0  0  0
  1  4  1  0  0  0  0
  4  5  1  0  0  0  0
  4  6  2  0  0  0  0
  6  7  1  0  0  0  0
  6  8  1  0  0  0  0
  8  9  1  0  0  0  0
  8 10  1  0  0  0  0
  8 11  1  0  0  0  0
 11 12  1  0  0  0  0
 11 13  1  0  0  0  0
 11 14  1  0  0  0  0
 14 15  1  0  0  0  0
 14 16  1  0  0  0  0
 14 17  1  0  0  0  0
M  END
> <VConfSearch Rank>
753

> <Conf_Id>
36

> <Delta U+W>
0.000

> <U+W>
-53.409

> <U>
9.048

> <W>
-62.457

> <W(PB)>
-64.540

> <W(SA)>
2.084

> <Valence>
2.652

> <Coulomb>
5.578

> <VdW>
0.818

> <VdW6>
-4.534

> <VdW12>
5.352

> <Bond>
0.063

> <Angle>
2.579

> <Pdih>
0.010

> <Idih>
0.000

> <Tether>
0.000

$$$$
VeraChem MOL file


 17 16  0  0  0  0  0  0  0  0999 V2000     
   23.0814   20.0665   22.9245 C   0  0  0  0  0  0  0  0  0  0  0  0
   23.7600   20.1909   21.9222 O   0  5  0  0  0  0  0  0  0  0  0  0
   23.5498   20.0918   24.0460 O   0  0  0  0  0  0  0  0  0  0  0  0
   21.6112   19.8753   22.7975 C   0  0  0  0  0  0  0  0  0  0  0  0
   21.0638   19.7709   23.7315 H   0  0  0  0  0  0  0  0  0  0  0  0
   20.9569   19.8262   21.6149 C   0  0  0  0  0  0  0  0  0  0  0  0
   21.4958   19.9275   20.6731 H   0  0  0  0  0  0  0  0  0  0  0  0
   19.4615   19.6296   21.4946 C   0  0  0  0  0  0  0  0  0  0  0  0
   19.1103   20.0524   20.5436 H   0  0  0  0  0  0  0  0  0  0  0  0
   18.9448   20.1814   22.2916 H   0  0  0  0  0  0  0  0  0  0  0  0
   19.0836   18.1359   21.5662 C   0  0  0  0  0  0  0  0  0  0  0  0
   19.5999   17.5865   20.7667 H   0  0  0  0  0  0  0  0  0  0  0  0
   19.4306   17.7123   22.5189 H   0  0  0  0  0  0  0  0  0  0  0  0
   17.5616   17.9263   21.4349 C   0  0  0  0  0  0  0  0  0  0  0  0
   17.1929   18.3130   20.4757 H   0  0  0  0  0  0  0  0  0  0  0  0
   17.3122   16.8585   21.4880 H   0  0  0  0  0  0  0  0  0  0  0  0
   17.0232   18.4406   22.2418 H   0  0  0  0  0  0  0  0  0  0  0  0
  1  2  1  0  0  0  0
  1  3  2  0  0  0  0
  1  4  1  0  0  0  0
  4  5  1  0  0  0  0
  4  6  2  0  0  0  0
  6  7  1  0  0  0  0
  6  8  1  0  0  0  0
  8  9  1  0  0  0  0
  8 10  1  0  0  0  0
  8 11  1  0  0  0  0
 11 12  1  0  0  0  0
 11 13  1  0  0  0  0
 11 14  1  0  0  0  0
 14 15  1  0  0  0  0
 14 16  1  0  0  0  0
 14 17  1  0  0  0  0
M  END
> <VConfSearch Rank>
754

> <Conf_Id>
1

> <Delta U+W>
0.030

> <U+W>
-53.378

> <U>
9.048

> <W>
-62.426

> <W(PB)>
-64.506

> <W(SA)>
2.080

> <Valence>
2.652

> <Coulomb>
5.578

> <VdW>
0.818

> <VdW6>
-4.535

> <VdW12>
5.352

> <Bond>
0.063

> <Angle>
2.579

> <Pdih>
0.010

> <Idih>
0.000

> <Tether>
0.000

$$$$
VeraChem MOL file


 17 16  0  0  0  0  0  0  0  0999 V2000     
   20.9628   21.8787   21.1469 C   0  0  0  0  0  0  0  0  0  0  0  0
   20.3972   22.5777   21.9666 O   0  5  0  0  0  0  0  0  0  0  0  0
   21.8757   22.2825   20.4531 O   0  0  0  0  0  0  0  0  0  0  0  0
   20.5343   20.4654   20.9649 C   0  0  0  0  0  0  0  0  0  0  0  0
   21.0804   19.8965   20.2160 H   0  0  0  0  0  0  0  0  0  0  0  0
   19.5359   19.8841   21.6679 C   0  0  0  0  0  0  0  0  0  0  0  0
   18.9845   20.4438   22.4230 H   0  0  0  0  0  0  0  0  0  0  0  0
   19.1079   18.4438   21.4798 C   0  0  0  0  0  0  0  0  0  0  0  0
   19.1093   18.1959   20.4097 H   0  0  0  0  0  0  0  0  0  0  0  0
   18.0725   18.3147   21.8226 H   0  0  0  0  0  0  0  0  0  0  0  0
   20.0272   17.4549   22.2298 C   0  0  0  0  0  0  0  0  0  0  0  0
   19.7349   16.4274   21.9730 H   0  0  0  0  0  0  0  0  0  0  0  0
   21.0639   17.5808   21.8879 H   0  0  0  0  0  0  0  0  0  0  0  0
   19.9600   17.6305   23.7619 C   0  0  0  0  0  0  0  0  0  0  0  0
   18.9338   17.4963   24.1279 H   0  0  0  0  0  0  0  0  0  0  0  0
   20.5982   16.8915   24.2634 H   0  0  0  0  0  0  0  0  0  0  0  0
   20.3030   18.6295   24.0614 H   0  0  0  0  0  0  0  0  0  0  0  0
  1  2  1  0  0  0  0
  1  3  2  0  0  0  0
  1  4  1  0  0  0  0
  4  5  1  0  0  0  0
  4  6  2  0  0  0  0
  6  7  1  0  0  0  0
  6  8  1  0  0  0  0
  8  9  1  0  0  0  0
  8 10  1  0  0  0  0
  8 11  1  0  0  0  0
 11 12  1  0  0  0  0
 11 13  1  0  0  0  0
 11 14  1  0  0  0  0
 14 15  1  0  0  0  0
 14 16  1  0  0  0  0
 14 17  1  0  0  0  0
M  END
> <VConfSearch Rank>
755

> <Conf_Id>
3

> <Delta U+W>
0.531

> <U+W>
-52.878

> <U>
10.067

> <W>
-62.945

> <W(PB)>
-64.982

> <W(SA)>
2.037

> <Valence>
2.779

> <Coulomb>
6.474

> <VdW>
0.815

> <VdW6>
-5.088

> <VdW12>
5.902

> <Bond>
0.078

> <Angle>
2.651

> <Pdih>
0.050

> <Idih>
0.000

> <Tether>
0.000

$$$$
VeraChem MOL file


 17 16  0  0  0  0  0  0  0  0999 V2000     
   17.1942   18.3286   22.9598 C   0  0  0  0  0  0  0  0  0  0  0  0
   16.2901   19.0295   23.3711 O   0  5  0  0  0  0  0  0  0  0  0  0
   17.2491   17.1313   23.1691 O   0  0  0  0  0  0  0  0  0  0  0  0
   18.2669   18.9863   22.1655 C   0  0  0  0  0  0  0  0  0  0  0  0
   18.1565   20.0578   22.0158 H   0  0  0  0  0  0  0  0  0  0  0  0
   19.3315   18.3310   21.6490 C   0  0  0  0  0  0  0  0  0  0  0  0
   19.4518   17.2581   21.7973 H   0  0  0  0  0  0  0  0  0  0  0  0
   20.4234   19.0038   20.8431 C   0  0  0  0  0  0  0  0  0  0  0  0
   20.0881   19.9857   20.4823 H   0  0  0  0  0  0  0  0  0  0  0  0
   20.6291   18.4033   19.9469 H   0  0  0  0  0  0  0  0  0  0  0  0
   21.7311   19.1658   21.6485 C   0  0  0  0  0  0  0  0  0  0  0  0
   22.0658   18.1843   22.0120 H   0  0  0  0  0  0  0  0  0  0  0  0
   22.5197   19.5385   20.9804 H   0  0  0  0  0  0  0  0  0  0  0  0
   21.5794   20.1373   22.8384 C   0  0  0  0  0  0  0  0  0  0  0  0
   20.8435   19.7646   23.5627 H   0  0  0  0  0  0  0  0  0  0  0  0
   22.5361   20.2578   23.3628 H   0  0  0  0  0  0  0  0  0  0  0  0
   21.2526   21.1281   22.4970 H   0  0  0  0  0  0  0  0  0  0  0  0
  1  2  1  0  0  0  0
  1  3  2  0  0  0  0
  1  4  1  0  0  0  0
  4  5  1  0  0  0  0
  4  6  2  0  0  0  0
  6  7  1  0  0  0  0
  6  8  1  0  0  0  0
  8  9  1  0  0  0  0
  8 10  1  0  0  0  0
  8 11  1  0  0  0  0
 11 12  1  0  0  0  0
 11 13  1  0  0  0  0
 11 14  1  0  0  0  0
 14 15  1  0  0  0  0
 14 16  1  0  0  0  0
 14 17  1  0  0  0  0
M  END
> <VConfSearch Rank>
756

> <Conf_Id>
45

> <Delta U+W>
0.562

> <U+W>
-52.846

> <U>
10.243

> <W>
-63.089

> <W(PB)>
-65.116

> <W(SA)>
2.026

> <Valence>
2.822

> <Coulomb>
6.637

> <VdW>
0.785

> <VdW6>
-5.216

> <VdW12>
6.001

> <Bond>
0.080

> <Angle>
2.678

> <Pdih>
0.064

> <Idih>
0.000

> <Tether>
0.000

$$$$
VeraChem MOL file


 17 16  0  0  0  0  0  0  0  0999 V2000     
   22.4120   20.3145   23.9372 C   0  0  0  0  0  0  0  0  0  0  0  0
   22.9963   19.7613   24.8483 O   0  5  0  0  0  0  0  0  0  0  0  0
   22.4641   21.5158   23.7517 O   0  0  0  0  0  0  0  0  0  0  0  0
   21.6052   19.4638   23.0209 C   0  0  0  0  0  0  0  0  0  0  0  0
   21.6010   18.3990   23.2424 H   0  0  0  0  0  0  0  0  0  0  0  0
   20.9040   19.9437   21.9686 C   0  0  0  0  0  0  0  0  0  0  0  0
   20.8993   21.0091   21.7391 H   0  0  0  0  0  0  0  0  0  0  0  0
   20.0842   19.0718   21.0429 C   0  0  0  0  0  0  0  0  0  0  0  0
   20.6048   18.1213   20.8633 H   0  0  0  0  0  0  0  0  0  0  0  0
   19.9858   19.5637   20.0657 H   0  0  0  0  0  0  0  0  0  0  0  0
   18.6829   18.7960   21.6253 C   0  0  0  0  0  0  0  0  0  0  0  0
   18.7795   18.3000   22.6011 H   0  0  0  0  0  0  0  0  0  0  0  0
   18.1635   19.7481   21.8022 H   0  0  0  0  0  0  0  0  0  0  0  0
   17.8374   17.9156   20.6831 C   0  0  0  0  0  0  0  0  0  0  0  0
   17.6984   18.4031   19.7093 H   0  0  0  0  0  0  0  0  0  0  0  0
   18.3205   16.9441   20.5145 H   0  0  0  0  0  0  0  0  0  0  0  0
   16.8449   17.7302   21.1140 H   0  0  0  0  0  0  0  0  0  0  0  0
  1  2  1  0  0  0  0
  1  3  2  0  0  0  0
  1  4  1  0  0  0  0
  4  5  1  0  0  0  0
  4  6  2  0  0  0  0
  6  7  1  0  0  0  0
  6  8  1  0  0  0  0
  8  9  1  0  0  0  0
  8 10  1  0  0  0  0
  8 11  1  0  0  0  0
 11 12  1  0  0  0  0
 11 13  1  0  0  0  0
 11 14  1  0  0  0  0
 14 15  1  0  0  0  0
 14 16  1  0  0  0  0
 14 17  1  0  0  0  0
M  END
> <VConfSearch Rank>
757

> <Conf_Id>
36

> <Delta U+W>
0.000

> <U+W>
-53.409

> <U>
9.048

> <W>
-62.457

> <W(PB)>
-64.540

> <W(SA)>
2.084

> <Valence>
2.652

> <Coulomb>
5.578

> <VdW>
0.818

> <VdW6>
-4.534

> <VdW12>
5.352

> <Bond>
0.063

> <Angle>
2.579

> <Pdih>
0.010

> <Idih>
0.000

> <Tether>
0.000

$$$$
VeraChem MOL file


 17 16  0  0  0  0  0  0  0  0999 V2000     
   22.8537   17.3650   22.4858 C   0  0  0  0  0  0  0  0  0  0  0  0
   23.7772   18.1403   22.3229 O   0  5  0  0  0  0  0  0  0  0  0  0
   23.0125   16.1665   22.6123 O   0  0  0  0  0  0  0  0  0  0  0  0
   21.4597   17.8830   22.5375 C   0  0  0  0  0  0  0  0  0  0  0  0
   20.6816   17.1377   22.6855 H   0  0  0  0  0  0  0  0  0  0  0  0
   21.1361   19.1900   22.4106 C   0  0  0  0  0  0  0  0  0  0  0  0
   21.9076   19.9449   22.2597 H   0  0  0  0  0  0  0  0  0  0  0  0
   19.7156   19.7083   22.4624 C   0  0  0  0  0  0  0  0  0  0  0  0
   19.7192   20.7603   22.7784 H   0  0  0  0  0  0  0  0  0  0  0  0
   19.1419   19.1566   23.2196 H   0  0  0  0  0  0  0  0  0  0  0  0
   19.0215   19.5839   21.0906 C   0  0  0  0  0  0  0  0  0  0  0  0
   19.5960   20.1383   20.3355 H   0  0  0  0  0  0  0  0  0  0  0  0
   19.0134   18.5313   20.7749 H   0  0  0  0  0  0  0  0  0  0  0  0
   17.5760   20.1187   21.1328 C   0  0  0  0  0  0  0  0  0  0  0  0
   17.5575   21.1794   21.4155 H   0  0  0  0  0  0  0  0  0  0  0  0
   17.0989   20.0219   20.1488 H   0  0  0  0  0  0  0  0  0  0  0  0
   16.9713   19.5596   21.8589 H   0  0  0  0  0  0  0  0  0  0  0  0
  1  2  1  0  0  0  0
  1  3  2  0  0  0  0
  1  4  1  0  0  0  0
  4  5  1  0  0  0  0
  4  6  2  0  0  0  0
  6  7  1  0  0  0  0
  6  8  1  0  0  0  0
  8  9  1  0  0  0  0
  8 10  1  0  0  0  0
  8 11  1  0  0  0  0
 11 12  1  0  0  0  0
 11 13  1  0  0  0  0
 11 14  1  0  0  0  0
 14 15  1  0  0  0  0
 14 16  1  0  0  0  0
 14 17  1  0  0  0  0
M  END
> <VConfSearch Rank>
758

> <Conf_Id>
1

> <Delta U+W>
0.030

> <U+W>
-53.378

> <U>
9.048

> <W>
-62.426

> <W(PB)>
-64.506

> <W(SA)>
2.080

> <Valence>
2.652

> <Coulomb>
5.578

> <VdW>
0.818

> <VdW6>
-4.535

> <VdW12>
5.352

> <Bond>
0.063

> <Angle>
2.579

> <Pdih>
0.010

> <Idih>
0.000

> <Tether>
0.000

$$$$
VeraChem MOL file


 17 16  0  0  0  0  0  0  0  0999 V2000     
   22.3531   17.7432   23.5445 C   0  0  0  0  0  0  0  0  0  0  0  0
   23.0344   17.3801   22.6041 O   0  5  0  0  0  0  0  0  0  0  0  0
   22.7745   17.7946   24.6837 O   0  0  0  0  0  0  0  0  0  0  0  0
   20.9383   18.1437   23.3164 C   0  0  0  0  0  0  0  0  0  0  0  0
   20.3853   18.4568   24.1989 H   0  0  0  0  0  0  0  0  0  0  0  0
   20.3394   18.1370   22.1038 C   0  0  0  0  0  0  0  0  0  0  0  0
   20.8851   17.8284   21.2125 H   0  0  0  0  0  0  0  0  0  0  0  0
   18.8999   18.5497   21.8787 C   0  0  0  0  0  0  0  0  0  0  0  0
   18.2736   18.1608   22.6929 H   0  0  0  0  0  0  0  0  0  0  0  0
   18.5207   18.0916   20.9553 H   0  0  0  0  0  0  0  0  0  0  0  0
   18.7337   20.0832   21.8004 C   0  0  0  0  0  0  0  0  0  0  0  0
   17.6637   20.3261   21.7431 H   0  0  0  0  0  0  0  0  0  0  0  0
   19.1111   20.5444   22.7236 H   0  0  0  0  0  0  0  0  0  0  0  0
   19.4558   20.6949   20.5809 C   0  0  0  0  0  0  0  0  0  0  0  0
   19.0851   20.2573   19.6448 H   0  0  0  0  0  0  0  0  0  0  0  0
   19.2892   21.7790   20.5376 H   0  0  0  0  0  0  0  0  0  0  0  0
   20.5387   20.5230   20.6345 H   0  0  0  0  0  0  0  0  0  0  0  0
  1  2  1  0  0  0  0
  1  3  2  0  0  0  0
  1  4  1  0  0  0  0
  4  5  1  0  0  0  0
  4  6  2  0  0  0  0
  6  7  1  0  0  0  0
  6  8  1  0  0  0  0
  8  9  1  0  0  0  0
  8 10  1  0  0  0  0
  8 11  1  0  0  0  0
 11 12  1  0  0  0  0
 11 13  1  0  0  0  0
 11 14  1  0  0  0  0
 14 15  1  0  0  0  0
 14 16  1  0  0  0  0
 14 17  1  0  0  0  0
M  END
> <VConfSearch Rank>
759

> <Conf_Id>
3

> <Delta U+W>
0.531

> <U+W>
-52.878

> <U>
10.067

> <W>
-62.945

> <W(PB)>
-64.982

> <W(SA)>
2.037

> <Valence>
2.779

> <Coulomb>
6.474

> <VdW>
0.815

> <VdW6>
-5.088

> <VdW12>
5.902

> <Bond>
0.078

> <Angle>
2.651

> <Pdih>
0.050

> <Idih>
0.000

> <Tether>
0.000

$$$$
VeraChem MOL file


 17 16  0  0  0  0  0  0  0  0999 V2000     
   18.6564   18.9873   24.7898 C   0  0  0  0  0  0  0  0  0  0  0  0
   17.4783   18.8935   25.0745 O   0  5  0  0  0  0  0  0  0  0  0  0
   19.4914   19.4127   25.5658 O   0  0  0  0  0  0  0  0  0  0  0  0
   19.0711   18.5538   23.4281 C   0  0  0  0  0  0  0  0  0  0  0  0
   18.2753   18.1841   22.7856 H   0  0  0  0  0  0  0  0  0  0  0  0
   20.3451   18.6047   22.9765 C   0  0  0  0  0  0  0  0  0  0  0  0
   21.1478   18.9771   23.6124 H   0  0  0  0  0  0  0  0  0  0  0  0
   20.7637   18.1652   21.5887 C   0  0  0  0  0  0  0  0  0  0  0  0
   19.9883   17.5348   21.1326 H   0  0  0  0  0  0  0  0  0  0  0  0
   21.6608   17.5367   21.6673 H   0  0  0  0  0  0  0  0  0  0  0  0
   21.0705   19.3623   20.6624 C   0  0  0  0  0  0  0  0  0  0  0  0
   21.8443   19.9948   21.1191 H   0  0  0  0  0  0  0  0  0  0  0  0
   21.4890   18.9870   19.7184 H   0  0  0  0  0  0  0  0  0  0  0  0
   19.8186   20.2115   20.3551 C   0  0  0  0  0  0  0  0  0  0  0  0
   19.4083   20.6578   21.2703 H   0  0  0  0  0  0  0  0  0  0  0  0
   20.0661   21.0281   19.6646 H   0  0  0  0  0  0  0  0  0  0  0  0
   19.0340   19.6003   19.8905 H   0  0  0  0  0  0  0  0  0  0  0  0
  1  2  1  0  0  0  0
  1  3  2  0  0  0  0
  1  4  1  0  0  0  0
  4  5  1  0  0  0  0
  4  6  2  0  0  0  0
  6  7  1  0  0  0  0
  6  8  1  0  0  0  0
  8  9  1  0  0  0  0
  8 10  1  0  0  0  0
  8 11  1  0  0  0  0
 11 12  1  0  0  0  0
 11 13  1  0  0  0  0
 11 14  1  0  0  0  0
 14 15  1  0  0  0  0
 14 16  1  0  0  0  0
 14 17  1  0  0  0  0
M  END
> <VConfSearch Rank>
760

> <Conf_Id>
45

> <Delta U+W>
0.562

> <U+W>
-52.846

> <U>
10.243

> <W>
-63.089

> <W(PB)>
-65.116

> <W(SA)>
2.026

> <Valence>
2.822

> <Coulomb>
6.637

> <VdW>
0.785

> <VdW6>
-5.216

> <VdW12>
6.001

> <Bond>
0.080

> <Angle>
2.678

> <Pdih>
0.064

> <Idih>
0.000

> <Tether>
0.000

$$$$
VeraChem MOL file


 17 16  0  0  0  0  0  0  0  0999 V2000     
   19.7755   18.9465   18.5518 C   0  0  0  0  0  0  0  0  0  0  0  0
   18.8186   19.1533   17.8312 O   0  5  0  0  0  0  0  0  0  0  0  0
   20.7935   18.4075   18.1598 O   0  0  0  0  0  0  0  0  0  0  0  0
   19.6742   19.3818   19.9711 C   0  0  0  0  0  0  0  0  0  0  0  0
   18.7382   19.8566   20.2562 H   0  0  0  0  0  0  0  0  0  0  0  0
   20.6590   19.2146   20.8829 C   0  0  0  0  0  0  0  0  0  0  0  0
   21.5999   18.7380   20.6085 H   0  0  0  0  0  0  0  0  0  0  0  0
   20.5470   19.6583   22.3250 C   0  0  0  0  0  0  0  0  0  0  0  0
   20.0146   20.6175   22.3826 H   0  0  0  0  0  0  0  0  0  0  0  0
   21.5509   19.8331   22.7350 H   0  0  0  0  0  0  0  0  0  0  0  0
   19.8157   18.6048   23.1819 C   0  0  0  0  0  0  0  0  0  0  0  0
   18.8095   18.4319   22.7754 H   0  0  0  0  0  0  0  0  0  0  0  0
   20.3512   17.6469   23.1243 H   0  0  0  0  0  0  0  0  0  0  0  0
   19.7058   19.0454   24.6554 C   0  0  0  0  0  0  0  0  0  0  0  0
   20.7002   19.1947   25.0962 H   0  0  0  0  0  0  0  0  0  0  0  0
   19.1469   19.9863   24.7435 H   0  0  0  0  0  0  0  0  0  0  0  0
   19.1830   18.2840   25.2488 H   0  0  0  0  0  0  0  0  0  0  0  0
  1  2  1  0  0  0  0
  1  3  2  0  0  0  0
  1  4  1  0  0  0  0
  4  5  1  0  0  0  0
  4  6  2  0  0  0  0
  6  7  1  0  0  0  0
  6  8  1  0  0  0  0
  8  9  1  0  0  0  0
  8 10  1  0  0  0  0
  8 11  1  0  0  0  0
 11 12  1  0  0  0  0
 11 13  1  0  0  0  0
 11 14  1  0  0  0  0
 14 15  1  0  0  0  0
 14 16  1  0  0  0  0
 14 17  1  0  0  0  0
M  END
> <VConfSearch Rank>
761

> <Conf_Id>
36

> <Delta U+W>
0.000

> <U+W>
-53.409

> <U>
9.048

> <W>
-62.457

> <W(PB)>
-64.540

> <W(SA)>
2.084

> <Valence>
2.652

> <Coulomb>
5.578

> <VdW>
0.818

> <VdW6>
-4.534

> <VdW12>
5.352

> <Bond>
0.063

> <Angle>
2.579

> <Pdih>
0.010

> <Idih>
0.000

> <Tether>
0.000

$$$$
VeraChem MOL file


 17 16  0  0  0  0  0  0  0  0999 V2000     
   22.3675   17.8604   23.9918 C   0  0  0  0  0  0  0  0  0  0  0  0
   22.3335   18.5358   25.0033 O   0  5  0  0  0  0  0  0  0  0  0  0
   23.2522   17.0587   23.7630 O   0  0  0  0  0  0  0  0  0  0  0  0
   21.2895   18.0033   22.9761 C   0  0  0  0  0  0  0  0  0  0  0  0
   21.3798   17.3707   22.0960 H   0  0  0  0  0  0  0  0  0  0  0  0
   20.2465   18.8554   23.0988 C   0  0  0  0  0  0  0  0  0  0  0  0
   20.1474   19.4953   23.9754 H   0  0  0  0  0  0  0  0  0  0  0  0
   19.1552   18.9959   22.0602 C   0  0  0  0  0  0  0  0  0  0  0  0
   18.2400   19.3720   22.5369 H   0  0  0  0  0  0  0  0  0  0  0  0
   18.9071   18.0114   21.6406 H   0  0  0  0  0  0  0  0  0  0  0  0
   19.5778   19.9533   20.9271 C   0  0  0  0  0  0  0  0  0  0  0  0
   19.8233   20.9378   21.3490 H   0  0  0  0  0  0  0  0  0  0  0  0
   20.4912   19.5762   20.4463 H   0  0  0  0  0  0  0  0  0  0  0  0
   18.4672   20.1091   19.8689 C   0  0  0  0  0  0  0  0  0  0  0  0
   17.5510   20.5150   20.3177 H   0  0  0  0  0  0  0  0  0  0  0  0
   18.7858   20.7932   19.0717 H   0  0  0  0  0  0  0  0  0  0  0  0
   18.2244   19.1422   19.4089 H   0  0  0  0  0  0  0  0  0  0  0  0
  1  2  1  0  0  0  0
  1  3  2  0  0  0  0
  1  4  1  0  0  0  0
  4  5  1  0  0  0  0
  4  6  2  0  0  0  0
  6  7  1  0  0  0  0
  6  8  1  0  0  0  0
  8  9  1  0  0  0  0
  8 10  1  0  0  0  0
  8 11  1  0  0  0  0
 11 12  1  0  0  0  0
 11 13  1  0  0  0  0
 11 14  1  0  0  0  0
 14 15  1  0  0  0  0
 14 16  1  0  0  0  0
 14 17  1  0  0  0  0
M  END
> <VConfSearch Rank>
762

> <Conf_Id>
1

> <Delta U+W>
0.030

> <U+W>
-53.378

> <U>
9.048

> <W>
-62.426

> <W(PB)>
-64.506

> <W(SA)>
2.080

> <Valence>
2.652

> <Coulomb>
5.578

> <VdW>
0.818

> <VdW6>
-4.535

> <VdW12>
5.352

> <Bond>
0.063

> <Angle>
2.579

> <Pdih>
0.010

> <Idih>
0.000

> <Tether>
0.000

$$$$
VeraChem MOL file


 17 16  0  0  0  0  0  0  0  0999 V2000     
   22.7209   20.2250   21.1052 C   0  0  0  0  0  0  0  0  0  0  0  0
   22.3564   21.2762   20.6126 O   0  5  0  0  0  0  0  0  0  0  0  0
   23.8823   19.9922   21.3786 O   0  0  0  0  0  0  0  0  0  0  0  0
   21.7208   19.1612   21.3915 C   0  0  0  0  0  0  0  0  0  0  0  0
   22.1129   18.2467   21.8306 H   0  0  0  0  0  0  0  0  0  0  0  0
   20.3975   19.2835   21.1405 C   0  0  0  0  0  0  0  0  0  0  0  0
   19.9935   20.1966   20.7039 H   0  0  0  0  0  0  0  0  0  0  0  0
   19.3849   18.1978   21.4382 C   0  0  0  0  0  0  0  0  0  0  0  0
   19.8055   17.2187   21.1717 H   0  0  0  0  0  0  0  0  0  0  0  0
   18.4972   18.3321   20.8055 H   0  0  0  0  0  0  0  0  0  0  0  0
   18.9623   18.1797   22.9237 C   0  0  0  0  0  0  0  0  0  0  0  0
   18.3126   17.3117   23.1018 H   0  0  0  0  0  0  0  0  0  0  0  0
   19.8483   18.0442   23.5593 H   0  0  0  0  0  0  0  0  0  0  0  0
   18.2143   19.4638   23.3414 C   0  0  0  0  0  0  0  0  0  0  0  0
   17.3169   19.6130   22.7270 H   0  0  0  0  0  0  0  0  0  0  0  0
   17.8999   19.4029   24.3914 H   0  0  0  0  0  0  0  0  0  0  0  0
   18.8552   20.3485   23.2329 H   0  0  0  0  0  0  0  0  0  0  0  0
  1  2  1  0  0  0  0
  1  3  2  0  0  0  0
  1  4  1  0  0  0  0
  4  5  1  0  0  0  0
  4  6  2  0  0  0  0
  6  7  1  0  0  0  0
  6  8  1  0  0  0  0
  8  9  1  0  0  0  0
  8 10  1  0  0  0  0
  8 11  1  0  0  0  0
 11 12  1  0  0  0  0
 11 13  1  0  0  0  0
 11 14  1  0  0  0  0
 14 15  1  0  0  0  0
 14 16  1  0  0  0  0
 14 17  1  0  0  0  0
M  END
> <VConfSearch Rank>
763

> <Conf_Id>
3

> <Delta U+W>
0.531

> <U+W>
-52.878

> <U>
10.067

> <W>
-62.945

> <W(PB)>
-64.982

> <W(SA)>
2.037

> <Valence>
2.779

> <Coulomb>
6.474

> <VdW>
0.815

> <VdW6>
-5.088

> <VdW12>
5.902

> <Bond>
0.078

> <Angle>
2.651

> <Pdih>
0.050

> <Idih>
0.000

> <Tether>
0.000

$$$$
VeraChem MOL file


 17 16  0  0  0  0  0  0  0  0999 V2000     
   21.4701   17.1021   20.3739 C   0  0  0  0  0  0  0  0  0  0  0  0
   22.1153   16.1278   20.7090 O   0  5  0  0  0  0  0  0  0  0  0  0
   21.6103   17.6479   19.2956 O   0  0  0  0  0  0  0  0  0  0  0  0
   20.4694   17.6295   21.3406 C   0  0  0  0  0  0  0  0  0  0  0  0
   20.3951   17.0950   22.2848 H   0  0  0  0  0  0  0  0  0  0  0  0
   19.6855   18.7056   21.1019 C   0  0  0  0  0  0  0  0  0  0  0  0
   19.7560   19.2492   20.1600 H   0  0  0  0  0  0  0  0  0  0  0  0
   18.6695   19.2419   22.0891 C   0  0  0  0  0  0  0  0  0  0  0  0
   18.4408   18.4889   22.8556 H   0  0  0  0  0  0  0  0  0  0  0  0
   17.7261   19.4371   21.5620 H   0  0  0  0  0  0  0  0  0  0  0  0
   19.1432   20.5458   22.7676 C   0  0  0  0  0  0  0  0  0  0  0  0
   19.3747   21.2987   22.0014 H   0  0  0  0  0  0  0  0  0  0  0  0
   18.3212   20.9549   23.3712 H   0  0  0  0  0  0  0  0  0  0  0  0
   20.3739   20.3305   23.6741 C   0  0  0  0  0  0  0  0  0  0  0  0
   21.2377   19.9821   23.0932 H   0  0  0  0  0  0  0  0  0  0  0  0
   20.6577   21.2683   24.1690 H   0  0  0  0  0  0  0  0  0  0  0  0
   20.1624   19.5865   24.4530 H   0  0  0  0  0  0  0  0  0  0  0  0
  1  2  1  0  0  0  0
  1  3  2  0  0  0  0
  1  4  1  0  0  0  0
  4  5  1  0  0  0  0
  4  6  2  0  0  0  0
  6  7  1  0  0  0  0
  6  8  1  0  0  0  0
  8  9  1  0  0  0  0
  8 10  1  0  0  0  0
  8 11  1  0  0  0  0
 11 12  1  0  0  0  0
 11 13  1  0  0  0  0
 11 14  1  0  0  0  0
 14 15  1  0  0  0  0
 14 16  1  0  0  0  0
 14 17  1  0  0  0  0
M  END
> <VConfSearch Rank>
764

> <Conf_Id>
45

> <Delta U+W>
0.562

> <U+W>
-52.846

> <U>
10.243

> <W>
-63.089

> <W(PB)>
-65.116

> <W(SA)>
2.026

> <Valence>
2.822

> <Coulomb>
6.637

> <VdW>
0.785

> <VdW6>
-5.216

> <VdW12>
6.001

> <Bond>
0.080

> <Angle>
2.678

> <Pdih>
0.064

> <Idih>
0.000

> <Tether>
0.000

$$$$
VeraChem MOL file


 17 16  0  0  0  0  0  0  0  0999 V2000     
   23.2363   19.9259   22.3681 C   0  0  0  0  0  0  0  0  0  0  0  0
   24.1694   19.2144   22.6854 O   0  5  0  0  0  0  0  0  0  0  0  0
   23.2984   21.1410   22.3795 O   0  0  0  0  0  0  0  0  0  0  0  0
   21.9739   19.2585   21.9497 C   0  0  0  0  0  0  0  0  0  0  0  0
   21.9854   18.1710   21.9620 H   0  0  0  0  0  0  0  0  0  0  0  0
   20.8585   19.9240   21.5729 C   0  0  0  0  0  0  0  0  0  0  0  0
   20.8353   21.0135   21.5592 H   0  0  0  0  0  0  0  0  0  0  0  0
   19.5779   19.2375   21.1509 C   0  0  0  0  0  0  0  0  0  0  0  0
   19.8096   18.3411   20.5596 H   0  0  0  0  0  0  0  0  0  0  0  0
   19.0021   19.9043   20.4949 H   0  0  0  0  0  0  0  0  0  0  0  0
   18.7203   18.8481   22.3723 C   0  0  0  0  0  0  0  0  0  0  0  0
   19.2935   18.1776   23.0275 H   0  0  0  0  0  0  0  0  0  0  0  0
   18.4882   19.7465   22.9609 H   0  0  0  0  0  0  0  0  0  0  0  0
   17.4086   18.1562   21.9501 C   0  0  0  0  0  0  0  0  0  0  0  0
   16.8006   18.8178   21.3192 H   0  0  0  0  0  0  0  0  0  0  0  0
   17.6133   17.2370   21.3857 H   0  0  0  0  0  0  0  0  0  0  0  0
   16.8124   17.8867   22.8317 H   0  0  0  0  0  0  0  0  0  0  0  0
  1  2  1  0  0  0  0
  1  3  2  0  0  0  0
  1  4  1  0  0  0  0
  4  5  1  0  0  0  0
  4  6  2  0  0  0  0
  6  7  1  0  0  0  0
  6  8  1  0  0  0  0
  8  9  1  0  0  0  0
  8 10  1  0  0  0  0
  8 11  1  0  0  0  0
 11 12  1  0  0  0  0
 11 13  1  0  0  0  0
 11 14  1  0  0  0  0
 14 15  1  0  0  0  0
 14 16  1  0  0  0  0
 14 17  1  0  0  0  0
M  END
> <VConfSearch Rank>
765

> <Conf_Id>
36

> <Delta U+W>
0.000

> <U+W>
-53.409

> <U>
9.048

> <W>
-62.457

> <W(PB)>
-64.540

> <W(SA)>
2.084

> <Valence>
2.652

> <Coulomb>
5.578

> <VdW>
0.818

> <VdW6>
-4.534

> <VdW12>
5.352

> <Bond>
0.063

> <Angle>
2.579

> <Pdih>
0.010

> <Idih>
0.000

> <Tether>
0.000

$$$$
VeraChem MOL file


 17 16  0  0  0  0  0  0  0  0999 V2000     
   22.1054   16.5158   22.5141 C   0  0  0  0  0  0  0  0  0  0  0  0
   22.8697   16.4545   21.5694 O   0  5  0  0  0  0  0  0  0  0  0  0
   22.0324   15.6473   23.3615 O   0  0  0  0  0  0  0  0  0  0  0  0
   21.2116   17.6964   22.6608 C   0  0  0  0  0  0  0  0  0  0  0  0
   20.5535   17.6887   23.5267 H   0  0  0  0  0  0  0  0  0  0  0  0
   21.1854   18.7343   21.7942 C   0  0  0  0  0  0  0  0  0  0  0  0
   21.8390   18.7512   20.9222 H   0  0  0  0  0  0  0  0  0  0  0  0
   20.2720   19.9304   21.9497 C   0  0  0  0  0  0  0  0  0  0  0  0
   20.7094   20.7966   21.4351 H   0  0  0  0  0  0  0  0  0  0  0  0
   20.1906   20.2053   23.0102 H   0  0  0  0  0  0  0  0  0  0  0  0
   18.8688   19.6441   21.3769 C   0  0  0  0  0  0  0  0  0  0  0  0
   18.9527   19.3715   20.3157 H   0  0  0  0  0  0  0  0  0  0  0  0
   18.4281   18.7802   21.8937 H   0  0  0  0  0  0  0  0  0  0  0  0
   17.9343   20.8618   21.5233 C   0  0  0  0  0  0  0  0  0  0  0  0
   18.3363   21.7323   20.9885 H   0  0  0  0  0  0  0  0  0  0  0  0
   16.9417   20.6394   21.1106 H   0  0  0  0  0  0  0  0  0  0  0  0
   17.8087   21.1360   22.5790 H   0  0  0  0  0  0  0  0  0  0  0  0
  1  2  1  0  0  0  0
  1  3  2  0  0  0  0
  1  4  1  0  0  0  0
  4  5  1  0  0  0  0
  4  6  2  0  0  0  0
  6  7  1  0  0  0  0
  6  8  1  0  0  0  0
  8  9  1  0  0  0  0
  8 10  1  0  0  0  0
  8 11  1  0  0  0  0
 11 12  1  0  0  0  0
 11 13  1  0  0  0  0
 11 14  1  0  0  0  0
 14 15  1  0  0  0  0
 14 16  1  0  0  0  0
 14 17  1  0  0  0  0
M  END
> <VConfSearch Rank>
766

> <Conf_Id>
1

> <Delta U+W>
0.030

> <U+W>
-53.378

> <U>
9.048

> <W>
-62.426

> <W(PB)>
-64.506

> <W(SA)>
2.080

> <Valence>
2.652

> <Coulomb>
5.578

> <VdW>
0.818

> <VdW6>
-4.535

> <VdW12>
5.352

> <Bond>
0.063

> <Angle>
2.579

> <Pdih>
0.010

> <Idih>
0.000

> <Tether>
0.000

$$$$
VeraChem MOL file


 17 16  0  0  0  0  0  0  0  0999 V2000     
   23.0446   19.5594   22.3803 C   0  0  0  0  0  0  0  0  0  0  0  0
   23.4723   18.4645   22.0658 O   0  5  0  0  0  0  0  0  0  0  0  0
   23.7479   20.5488   22.4450 O   0  0  0  0  0  0  0  0  0  0  0  0
   21.6019   19.7190   22.7078 C   0  0  0  0  0  0  0  0  0  0  0  0
   21.2855   20.7228   22.9816 H   0  0  0  0  0  0  0  0  0  0  0  0
   20.7054   18.7069   22.6761 C   0  0  0  0  0  0  0  0  0  0  0  0
   21.0109   17.6980   22.3998 H   0  0  0  0  0  0  0  0  0  0  0  0
   19.2377   18.8778   23.0070 C   0  0  0  0  0  0  0  0  0  0  0  0
   19.1304   19.5480   23.8706 H   0  0  0  0  0  0  0  0  0  0  0  0
   18.8096   17.9136   23.3127 H   0  0  0  0  0  0  0  0  0  0  0  0
   18.4303   19.4481   21.8202 C   0  0  0  0  0  0  0  0  0  0  0  0
   17.4014   19.6489   22.1493 H   0  0  0  0  0  0  0  0  0  0  0  0
   18.8555   20.4136   21.5128 H   0  0  0  0  0  0  0  0  0  0  0  0
   18.3953   18.4873   20.6126 C   0  0  0  0  0  0  0  0  0  0  0  0
   17.9618   17.5187   20.8938 H   0  0  0  0  0  0  0  0  0  0  0  0
   17.7867   18.9085   19.8020 H   0  0  0  0  0  0  0  0  0  0  0  0
   19.4043   18.3099   20.2183 H   0  0  0  0  0  0  0  0  0  0  0  0
  1  2  1  0  0  0  0
  1  3  2  0  0  0  0
  1  4  1  0  0  0  0
  4  5  1  0  0  0  0
  4  6  2  0  0  0  0
  6  7  1  0  0  0  0
  6  8  1  0  0  0  0
  8  9  1  0  0  0  0
  8 10  1  0  0  0  0
  8 11  1  0  0  0  0
 11 12  1  0  0  0  0
 11 13  1  0  0  0  0
 11 14  1  0  0  0  0
 14 15  1  0  0  0  0
 14 16  1  0  0  0  0
 14 17  1  0  0  0  0
M  END
> <VConfSearch Rank>
767

> <Conf_Id>
3

> <Delta U+W>
0.531

> <U+W>
-52.878

> <U>
10.067

> <W>
-62.945

> <W(PB)>
-64.982

> <W(SA)>
2.037

> <Valence>
2.779

> <Coulomb>
6.474

> <VdW>
0.815

> <VdW6>
-5.088

> <VdW12>
5.902

> <Bond>
0.078

> <Angle>
2.651

> <Pdih>
0.050

> <Idih>
0.000

> <Tether>
0.000

$$$$
VeraChem MOL file


 17 16  0  0  0  0  0  0  0  0999 V2000     
   19.0100   21.0237   24.1934 C   0  0  0  0  0  0  0  0  0  0  0  0
   18.2492   21.9665   24.0937 O   0  5  0  0  0  0  0  0  0  0  0  0
   19.7995   20.9064   25.1118 O   0  0  0  0  0  0  0  0  0  0  0  0
   18.9520   19.9788   23.1356 C   0  0  0  0  0  0  0  0  0  0  0  0
   18.2246   20.1452   22.3445 H   0  0  0  0  0  0  0  0  0  0  0  0
   19.7397   18.8793   23.1184 C   0  0  0  0  0  0  0  0  0  0  0  0
   20.4737   18.7067   23.9051 H   0  0  0  0  0  0  0  0  0  0  0  0
   19.6802   17.8187   22.0386 C   0  0  0  0  0  0  0  0  0  0  0  0
   18.7419   17.8957   21.4726 H   0  0  0  0  0  0  0  0  0  0  0  0
   19.6716   16.8271   22.5104 H   0  0  0  0  0  0  0  0  0  0  0  0
   20.8794   17.9016   21.0689 C   0  0  0  0  0  0  0  0  0  0  0  0
   21.8185   17.8273   21.6346 H   0  0  0  0  0  0  0  0  0  0  0  0
   20.8524   17.0376   20.3908 H   0  0  0  0  0  0  0  0  0  0  0  0
   20.8775   19.1984   20.2315 C   0  0  0  0  0  0  0  0  0  0  0  0
   20.9687   20.0844   20.8731 H   0  0  0  0  0  0  0  0  0  0  0  0
   21.7199   19.2047   19.5278 H   0  0  0  0  0  0  0  0  0  0  0  0
   19.9501   19.2896   19.6513 H   0  0  0  0  0  0  0  0  0  0  0  0
  1  2  1  0  0  0  0
  1  3  2  0  0  0  0
  1  4  1  0  0  0  0
  4  5  1  0  0  0  0
  4  6  2  0  0  0  0
  6  7  1  0  0  0  0
  6  8  1  0  0  0  0
  8  9  1  0  0  0  0
  8 10  1  0  0  0  0
  8 11  1  0  0  0  0
 11 12  1  0  0  0  0
 11 13  1  0  0  0  0
 11 14  1  0  0  0  0
 14 15  1  0  0  0  0
 14 16  1  0  0  0  0
 14 17  1  0  0  0  0
M  END
> <VConfSearch Rank>
768

> <Conf_Id>
45

> <Delta U+W>
0.562

> <U+W>
-52.846

> <U>
10.243

> <W>
-63.089

> <W(PB)>
-65.116

> <W(SA)>
2.026

> <Valence>
2.822

> <Coulomb>
6.637

> <VdW>
0.785

> <VdW6>
-5.216

> <VdW12>
6.001

> <Bond>
0.080

> <Angle>
2.678

> <Pdih>
0.064

> <Idih>
0.000

> <Tether>
0.000

$$$$
VeraChem MOL file


 17 16  0  0  0  0  0  0  0  0999 V2000     
   17.2923   19.7360   23.8373 C   0  0  0  0  0  0  0  0  0  0  0  0
   17.2212   20.3292   24.8959 O   0  5  0  0  0  0  0  0  0  0  0  0
   16.3846   19.0538   23.4000 O   0  0  0  0  0  0  0  0  0  0  0  0
   18.5541   19.8663   23.0595 C   0  0  0  0  0  0  0  0  0  0  0  0
   19.3248   20.4903   23.5064 H   0  0  0  0  0  0  0  0  0  0  0  0
   18.7716   19.2622   21.8692 C   0  0  0  0  0  0  0  0  0  0  0  0
   18.0072   18.6330   21.4136 H   0  0  0  0  0  0  0  0  0  0  0  0
   20.0588   19.3982   21.0856 C   0  0  0  0  0  0  0  0  0  0  0  0
   20.4401   20.4254   21.1650 H   0  0  0  0  0  0  0  0  0  0  0  0
   19.8612   19.2197   20.0200 H   0  0  0  0  0  0  0  0  0  0  0  0
   21.1285   18.4058   21.5855 C   0  0  0  0  0  0  0  0  0  0  0  0
   21.3303   18.5857   22.6506 H   0  0  0  0  0  0  0  0  0  0  0  0
   20.7456   17.3790   21.5032 H   0  0  0  0  0  0  0  0  0  0  0  0
   22.4406   18.5315   20.7855 C   0  0  0  0  0  0  0  0  0  0  0  0
   22.2728   18.3248   19.7203 H   0  0  0  0  0  0  0  0  0  0  0  0
   22.8611   19.5416   20.8768 H   0  0  0  0  0  0  0  0  0  0  0  0
   23.1889   17.8184   21.1552 H   0  0  0  0  0  0  0  0  0  0  0  0
  1  2  1  0  0  0  0
  1  3  2  0  0  0  0
  1  4  1  0  0  0  0
  4  5  1  0  0  0  0
  4  6  2  0  0  0  0
  6  7  1  0  0  0  0
  6  8  1  0  0  0  0
  8  9  1  0  0  0  0
  8 10  1  0  0  0  0
  8 11  1  0  0  0  0
 11 12  1  0  0  0  0
 11 13  1  0  0  0  0
 11 14  1  0  0  0  0
 14 15  1  0  0  0  0
 14 16  1  0  0  0  0
 14 17  1  0  0  0  0
M  END
> <VConfSearch Rank>
769

> <Conf_Id>
36

> <Delta U+W>
0.000

> <U+W>
-53.409

> <U>
9.048

> <W>
-62.457

> <W(PB)>
-64.540

> <W(SA)>
2.084

> <Valence>
2.652

> <Coulomb>
5.578

> <VdW>
0.818

> <VdW6>
-4.534

> <VdW12>
5.352

> <Bond>
0.063

> <Angle>
2.579

> <Pdih>
0.010

> <Idih>
0.000

> <Tether>
0.000

$$$$
VeraChem MOL file


 17 16  0  0  0  0  0  0  0  0999 V2000     
   20.8958   22.0618   23.2508 C   0  0  0  0  0  0  0  0  0  0  0  0
   22.1113   22.0774   23.3040 O   0  5  0  0  0  0  0  0  0  0  0  0
   20.2006   22.8972   23.7952 O   0  0  0  0  0  0  0  0  0  0  0  0
   20.2073   20.9836   22.4908 C   0  0  0  0  0  0  0  0  0  0  0  0
   19.1206   21.0281   22.4830 H   0  0  0  0  0  0  0  0  0  0  0  0
   20.8534   19.9905   21.8385 C   0  0  0  0  0  0  0  0  0  0  0  0
   21.9419   19.9352   21.8417 H   0  0  0  0  0  0  0  0  0  0  0  0
   20.1455   18.8967   21.0694 C   0  0  0  0  0  0  0  0  0  0  0  0
   20.8158   18.4978   20.2962 H   0  0  0  0  0  0  0  0  0  0  0  0
   19.2739   19.3105   20.5443 H   0  0  0  0  0  0  0  0  0  0  0  0
   19.6965   17.7537   22.0028 C   0  0  0  0  0  0  0  0  0  0  0  0
   20.5702   17.3400   22.5253 H   0  0  0  0  0  0  0  0  0  0  0  0
   19.0224   18.1504   22.7747 H   0  0  0  0  0  0  0  0  0  0  0  0
   18.9821   16.6303   21.2250 C   0  0  0  0  0  0  0  0  0  0  0  0
   19.6456   16.1940   20.4668 H   0  0  0  0  0  0  0  0  0  0  0  0
   18.6704   15.8269   21.9051 H   0  0  0  0  0  0  0  0  0  0  0  0
   18.0861   17.0118   20.7181 H   0  0  0  0  0  0  0  0  0  0  0  0
  1  2  1  0  0  0  0
  1  3  2  0  0  0  0
  1  4  1  0  0  0  0
  4  5  1  0  0  0  0
  4  6  2  0  0  0  0
  6  7  1  0  0  0  0
  6  8  1  0  0  0  0
  8  9  1  0  0  0  0
  8 10  1  0  0  0  0
  8 11  1  0  0  0  0
 11 12  1  0  0  0  0
 11 13  1  0  0  0  0
 11 14  1  0  0  0  0
 14 15  1  0  0  0  0
 14 16  1  0  0  0  0
 14 17  1  0  0  0  0
M  END
> <VConfSearch Rank>
770

> <Conf_Id>
1

> <Delta U+W>
0.030

> <U+W>
-53.378

> <U>
9.048

> <W>
-62.426

> <W(PB)>
-64.506

> <W(SA)>
2.080

> <Valence>
2.652

> <Coulomb>
5.578

> <VdW>
0.818

> <VdW6>
-4.535

> <VdW12>
5.352

> <Bond>
0.063

> <Angle>
2.579

> <Pdih>
0.010

> <Idih>
0.000

> <Tether>
0.000

$$$$
VeraChem MOL file


 17 16  0  0  0  0  0  0  0  0999 V2000     
   21.7124   21.2468   20.6492 C   0  0  0  0  0  0  0  0  0  0  0  0
   21.4309   21.0259   19.4863 O   0  5  0  0  0  0  0  0  0  0  0  0
   22.2492   22.2746   21.0144 O   0  0  0  0  0  0  0  0  0  0  0  0
   21.3992   20.2284   21.6879 C   0  0  0  0  0  0  0  0  0  0  0  0
   21.6776   20.4882   22.7066 H   0  0  0  0  0  0  0  0  0  0  0  0
   20.8033   19.0430   21.4256 C   0  0  0  0  0  0  0  0  0  0  0  0
   20.5171   18.7741   20.4091 H   0  0  0  0  0  0  0  0  0  0  0  0
   20.4840   18.0130   22.4887 C   0  0  0  0  0  0  0  0  0  0  0  0
   21.3162   17.9508   23.2030 H   0  0  0  0  0  0  0  0  0  0  0  0
   20.3989   17.0184   22.0306 H   0  0  0  0  0  0  0  0  0  0  0  0
   19.1834   18.3421   23.2540 C   0  0  0  0  0  0  0  0  0  0  0  0
   19.0594   17.6245   24.0767 H   0  0  0  0  0  0  0  0  0  0  0  0
   19.2661   19.3363   23.7146 H   0  0  0  0  0  0  0  0  0  0  0  0
   17.9349   18.2912   22.3477 C   0  0  0  0  0  0  0  0  0  0  0  0
   17.8250   17.3014   21.8859 H   0  0  0  0  0  0  0  0  0  0  0  0
   17.0271   18.4965   22.9296 H   0  0  0  0  0  0  0  0  0  0  0  0
   17.9967   19.0386   21.5460 H   0  0  0  0  0  0  0  0  0  0  0  0
  1  2  1  0  0  0  0
  1  3  2  0  0  0  0
  1  4  1  0  0  0  0
  4  5  1  0  0  0  0
  4  6  2  0  0  0  0
  6  7  1  0  0  0  0
  6  8  1  0  0  0  0
  8  9  1  0  0  0  0
  8 10  1  0  0  0  0
  8 11  1  0  0  0  0
 11 12  1  0  0  0  0
 11 13  1  0  0  0  0
 11 14  1  0  0  0  0
 14 15  1  0  0  0  0
 14 16  1  0  0  0  0
 14 17  1  0  0  0  0
M  END
> <VConfSearch Rank>
771

> <Conf_Id>
3

> <Delta U+W>
0.531

> <U+W>
-52.878

> <U>
10.067

> <W>
-62.945

> <W(PB)>
-64.982

> <W(SA)>
2.037

> <Valence>
2.779

> <Coulomb>
6.474

> <VdW>
0.815

> <VdW6>
-5.088

> <VdW12>
5.902

> <Bond>
0.078

> <Angle>
2.651

> <Pdih>
0.050

> <Idih>
0.000

> <Tether>
0.000

$$$$
VeraChem MOL file


 17 16  0  0  0  0  0  0  0  0999 V2000     
   18.7089   18.1288   19.5138 C   0  0  0  0  0  0  0  0  0  0  0  0
   19.1050   17.2978   18.7199 O   0  5  0  0  0  0  0  0  0  0  0  0
   17.8882   18.9795   19.2250 O   0  0  0  0  0  0  0  0  0  0  0  0
   19.2642   18.0811   20.8934 C   0  0  0  0  0  0  0  0  0  0  0  0
   19.9927   17.2964   21.0841 H   0  0  0  0  0  0  0  0  0  0  0  0
   18.9161   18.9429   21.8761 C   0  0  0  0  0  0  0  0  0  0  0  0
   18.1897   19.7342   21.6926 H   0  0  0  0  0  0  0  0  0  0  0  0
   19.4853   18.8934   23.2789 C   0  0  0  0  0  0  0  0  0  0  0  0
   19.9547   17.9191   23.4714 H   0  0  0  0  0  0  0  0  0  0  0  0
   18.6641   18.9848   24.0023 H   0  0  0  0  0  0  0  0  0  0  0  0
   20.5077   20.0219   23.5368 C   0  0  0  0  0  0  0  0  0  0  0  0
   20.0397   20.9968   23.3420 H   0  0  0  0  0  0  0  0  0  0  0  0
   20.7885   20.0153   24.5990 H   0  0  0  0  0  0  0  0  0  0  0  0
   21.7825   19.8759   22.6787 C   0  0  0  0  0  0  0  0  0  0  0  0
   21.5492   19.9425   21.6081 H   0  0  0  0  0  0  0  0  0  0  0  0
   22.5010   20.6709   22.9164 H   0  0  0  0  0  0  0  0  0  0  0  0
   22.2714   18.9105   22.8632 H   0  0  0  0  0  0  0  0  0  0  0  0
  1  2  1  0  0  0  0
  1  3  2  0  0  0  0
  1  4  1  0  0  0  0
  4  5  1  0  0  0  0
  4  6  2  0  0  0  0
  6  7  1  0  0  0  0
  6  8  1  0  0  0  0
  8  9  1  0  0  0  0
  8 10  1  0  0  0  0
  8 11  1  0  0  0  0
 11 12  1  0  0  0  0
 11 13  1  0  0  0  0
 11 14  1  0  0  0  0
 14 15  1  0  0  0  0
 14 16  1  0  0  0  0
 14 17  1  0  0  0  0
M  END
> <VConfSearch Rank>
772

> <Conf_Id>
45

> <Delta U+W>
0.562

> <U+W>
-52.846

> <U>
10.243

> <W>
-63.089

> <W(PB)>
-65.116

> <W(SA)>
2.026

> <Valence>
2.822

> <Coulomb>
6.637

> <VdW>
0.785

> <VdW6>
-5.216

> <VdW12>
6.001

> <Bond>
0.080

> <Angle>
2.678

> <Pdih>
0.064

> <Idih>
0.000

> <Tether>
0.000

$$$$
VeraChem MOL file


 17 16  0  0  0  0  0  0  0  0999 V2000     
   23.1845   18.7713   22.9495 C   0  0  0  0  0  0  0  0  0  0  0  0
   23.7597   17.7784   23.3507 O   0  5  0  0  0  0  0  0  0  0  0  0
   23.6383   19.8934   23.0742 O   0  0  0  0  0  0  0  0  0  0  0  0
   21.8700   18.5805   22.2788 C   0  0  0  0  0  0  0  0  0  0  0  0
   21.5221   17.5531   22.2001 H   0  0  0  0  0  0  0  0  0  0  0  0
   21.1212   19.5932   21.7860 C   0  0  0  0  0  0  0  0  0  0  0  0
   21.4592   20.6266   21.8616 H   0  0  0  0  0  0  0  0  0  0  0  0
   19.7843   19.3907   21.1071 C   0  0  0  0  0  0  0  0  0  0  0  0
   19.8116   18.4847   20.4865 H   0  0  0  0  0  0  0  0  0  0  0  0
   19.5866   20.2298   20.4266 H   0  0  0  0  0  0  0  0  0  0  0  0
   18.6417   19.2816   22.1375 C   0  0  0  0  0  0  0  0  0  0  0  0
   18.8360   18.4399   22.8167 H   0  0  0  0  0  0  0  0  0  0  0  0
   18.6152   20.1898   22.7557 H   0  0  0  0  0  0  0  0  0  0  0  0
   17.2742   19.0845   21.4531 C   0  0  0  0  0  0  0  0  0  0  0  0
   17.0405   19.9290   20.7915 H   0  0  0  0  0  0  0  0  0  0  0  0
   17.2642   18.1654   20.8526 H   0  0  0  0  0  0  0  0  0  0  0  0
   16.4745   19.0090   22.2014 H   0  0  0  0  0  0  0  0  0  0  0  0
  1  2  1  0  0  0  0
  1  3  2  0  0  0  0
  1  4  1  0  0  0  0
  4  5  1  0  0  0  0
  4  6  2  0  0  0  0
  6  7  1  0  0  0  0
  6  8  1  0  0  0  0
  8  9  1  0  0  0  0
  8 10  1  0  0  0  0
  8 11  1  0  0  0  0
 11 12  1  0  0  0  0
 11 13  1  0  0  0  0
 11 14  1  0  0  0  0
 14 15  1  0  0  0  0
 14 16  1  0  0  0  0
 14 17  1  0  0  0  0
M  END
> <VConfSearch Rank>
773

> <Conf_Id>
36

> <Delta U+W>
0.000

> <U+W>
-53.409

> <U>
9.048

> <W>
-62.457

> <W(PB)>
-64.540

> <W(SA)>
2.084

> <Valence>
2.652

> <Coulomb>
5.578

> <VdW>
0.818

> <VdW6>
-4.534

> <VdW12>
5.352

> <Bond>
0.063

> <Angle>
2.579

> <Pdih>
0.010

> <Idih>
0.000

> <Tether>
0.000

$$$$
VeraChem MOL file


 17 16  0  0  0  0  0  0  0  0999 V2000     
   21.3191   22.1568   22.4517 C   0  0  0  0  0  0  0  0  0  0  0  0
   21.8114   22.5200   21.3999 O   0  5  0  0  0  0  0  0  0  0  0  0
   21.4973   22.7435   23.5013 O   0  0  0  0  0  0  0  0  0  0  0  0
   20.4563   20.9448   22.4794 C   0  0  0  0  0  0  0  0  0  0  0  0
   20.0480   20.6750   23.4507 H   0  0  0  0  0  0  0  0  0  0  0  0
   20.1738   20.1955   21.3895 C   0  0  0  0  0  0  0  0  0  0  0  0
   20.5794   20.4555   20.4119 H   0  0  0  0  0  0  0  0  0  0  0  0
   19.2967   18.9632   21.4267 C   0  0  0  0  0  0  0  0  0  0  0  0
   18.8596   18.7928   20.4336 H   0  0  0  0  0  0  0  0  0  0  0  0
   18.4556   19.1215   22.1154 H   0  0  0  0  0  0  0  0  0  0  0  0
   20.0964   17.7173   21.8594 C   0  0  0  0  0  0  0  0  0  0  0  0
   20.9357   17.5598   21.1678 H   0  0  0  0  0  0  0  0  0  0  0  0
   20.5311   17.8846   22.8547 H   0  0  0  0  0  0  0  0  0  0  0  0
   19.2115   16.4549   21.8909 C   0  0  0  0  0  0  0  0  0  0  0  0
   18.7890   16.2463   20.8992 H   0  0  0  0  0  0  0  0  0  0  0  0
   19.7973   15.5796   22.2005 H   0  0  0  0  0  0  0  0  0  0  0  0
   18.3812   16.5748   22.5991 H   0  0  0  0  0  0  0  0  0  0  0  0
  1  2  1  0  0  0  0
  1  3  2  0  0  0  0
  1  4  1  0  0  0  0
  4  5  1  0  0  0  0
  4  6  2  0  0  0  0
  6  7  1  0  0  0  0
  6  8  1  0  0  0  0
  8  9  1  0  0  0  0
  8 10  1  0  0  0  0
  8 11  1  0  0  0  0
 11 12  1  0  0  0  0
 11 13  1  0  0  0  0
 11 14  1  0  0  0  0
 14 15  1  0  0  0  0
 14 16  1  0  0  0  0
 14 17  1  0  0  0  0
M  END
> <VConfSearch Rank>
774

> <Conf_Id>
1

> <Delta U+W>
0.030

> <U+W>
-53.378

> <U>
9.048

> <W>
-62.426

> <W(PB)>
-64.506

> <W(SA)>
2.080

> <Valence>
2.652

> <Coulomb>
5.578

> <VdW>
0.818

> <VdW6>
-4.535

> <VdW12>
5.352

> <Bond>
0.063

> <Angle>
2.579

> <Pdih>
0.010

> <Idih>
0.000

> <Tether>
0.000

$$$$
VeraChem MOL file


 17 16  0  0  0  0  0  0  0  0999 V2000     
   19.8299   20.5618   19.3498 C   0  0  0  0  0  0  0  0  0  0  0  0
   20.6327   19.9229   18.6957 O   0  5  0  0  0  0  0  0  0  0  0  0
   19.0168   21.3122   18.8463 O   0  0  0  0  0  0  0  0  0  0  0  0
   19.8257   20.4387   20.8327 C   0  0  0  0  0  0  0  0  0  0  0  0
   19.0839   21.0371   21.3566 H   0  0  0  0  0  0  0  0  0  0  0  0
   20.6711   19.6420   21.5252 C   0  0  0  0  0  0  0  0  0  0  0  0
   21.4158   19.0357   21.0101 H   0  0  0  0  0  0  0  0  0  0  0  0
   20.6583   19.5189   23.0344 C   0  0  0  0  0  0  0  0  0  0  0  0
   20.5028   20.5093   23.4834 H   0  0  0  0  0  0  0  0  0  0  0  0
   21.6386   19.1727   23.3886 H   0  0  0  0  0  0  0  0  0  0  0  0
   19.5588   18.5573   23.5363 C   0  0  0  0  0  0  0  0  0  0  0  0
   19.5277   18.5889   24.6341 H   0  0  0  0  0  0  0  0  0  0  0  0
   18.5765   18.9018   23.1844 H   0  0  0  0  0  0  0  0  0  0  0  0
   19.7931   17.1014   23.0800 C   0  0  0  0  0  0  0  0  0  0  0  0
   20.7650   16.7312   23.4316 H   0  0  0  0  0  0  0  0  0  0  0  0
   19.0136   16.4410   23.4814 H   0  0  0  0  0  0  0  0  0  0  0  0
   19.7712   17.0209   21.9853 H   0  0  0  0  0  0  0  0  0  0  0  0
  1  2  1  0  0  0  0
  1  3  2  0  0  0  0
  1  4  1  0  0  0  0
  4  5  1  0  0  0  0
  4  6  2  0  0  0  0
  6  7  1  0  0  0  0
  6  8  1  0  0  0  0
  8  9  1  0  0  0  0
  8 10  1  0  0  0  0
  8 11  1  0  0  0  0
 11 12  1  0  0  0  0
 11 13  1  0  0  0  0
 11 14  1  0  0  0  0
 14 15  1  0  0  0  0
 14 16  1  0  0  0  0
 14 17  1  0  0  0  0
M  END
> <VConfSearch Rank>
775

> <Conf_Id>
3

> <Delta U+W>
0.531

> <U+W>
-52.878

> <U>
10.067

> <W>
-62.945

> <W(PB)>
-64.982

> <W(SA)>
2.037

> <Valence>
2.779

> <Coulomb>
6.474

> <VdW>
0.815

> <VdW6>
-5.088

> <VdW12>
5.902

> <Bond>
0.078

> <Angle>
2.651

> <Pdih>
0.050

> <Idih>
0.000

> <Tether>
0.000

$$$$
VeraChem MOL file


 17 16  0  0  0  0  0  0  0  0999 V2000     
   21.4526   16.7432   20.8982 C   0  0  0  0  0  0  0  0  0  0  0  0
   21.1179   15.9864   20.0077 O   0  5  0  0  0  0  0  0  0  0  0  0
   22.3045   16.4606   21.7196 O   0  0  0  0  0  0  0  0  0  0  0  0
   20.7788   18.0682   20.9636 C   0  0  0  0  0  0  0  0  0  0  0  0
   20.0279   18.2563   20.1997 H   0  0  0  0  0  0  0  0  0  0  0  0
   21.0495   19.0059   21.9001 C   0  0  0  0  0  0  0  0  0  0  0  0
   21.7978   18.8243   22.6713 H   0  0  0  0  0  0  0  0  0  0  0  0
   20.3599   20.3529   21.9657 C   0  0  0  0  0  0  0  0  0  0  0  0
   19.8649   20.5805   21.0119 H   0  0  0  0  0  0  0  0  0  0  0  0
   21.1160   21.1359   22.1116 H   0  0  0  0  0  0  0  0  0  0  0  0
   19.3314   20.4295   23.1153 C   0  0  0  0  0  0  0  0  0  0  0  0
   19.8253   20.1994   24.0696 H   0  0  0  0  0  0  0  0  0  0  0  0
   18.9592   21.4602   23.1952 H   0  0  0  0  0  0  0  0  0  0  0  0
   18.1346   19.4774   22.9060 C   0  0  0  0  0  0  0  0  0  0  0  0
   18.4609   18.4294   22.8855 H   0  0  0  0  0  0  0  0  0  0  0  0
   17.4069   19.5871   23.7204 H   0  0  0  0  0  0  0  0  0  0  0  0
   17.6209   19.6947   21.9604 H   0  0  0  0  0  0  0  0  0  0  0  0
  1  2  1  0  0  0  0
  1  3  2  0  0  0  0
  1  4  1  0  0  0  0
  4  5  1  0  0  0  0
  4  6  2  0  0  0  0
  6  7  1  0  0  0  0
  6  8  1  0  0  0  0
  8  9  1  0  0  0  0
  8 10  1  0  0  0  0
  8 11  1  0  0  0  0
 11 12  1  0  0  0  0
 11 13  1  0  0  0  0
 11 14  1  0  0  0  0
 14 15  1  0  0  0  0
 14 16  1  0  0  0  0
 14 17  1  0  0  0  0
M  END
> <VConfSearch Rank>
776

> <Conf_Id>
45

> <Delta U+W>
0.562

> <U+W>
-52.846

> <U>
10.243

> <W>
-63.089

> <W(PB)>
-65.116

> <W(SA)>
2.026

> <Valence>
2.822

> <Coulomb>
6.637

> <VdW>
0.785

> <VdW6>
-5.216

> <VdW12>
6.001

> <Bond>
0.080

> <Angle>
2.678

> <Pdih>
0.064

> <Idih>
0.000

> <Tether>
0.000

$$$$
VeraChem MOL file


 17 16  0  0  0  0  0  0  0  0999 V2000     
   19.5216   22.3044   22.9139 C   0  0  0  0  0  0  0  0  0  0  0  0
   20.2636   23.0299   23.5469 O   0  5  0  0  0  0  0  0  0  0  0  0
   18.3479   22.5631   22.7245 O   0  0  0  0  0  0  0  0  0  0  0  0
   20.0974   21.0514   22.3548 C   0  0  0  0  0  0  0  0  0  0  0  0
   21.1516   20.8805   22.5604 H   0  0  0  0  0  0  0  0  0  0  0  0
   19.3895   20.1530   21.6330 C   0  0  0  0  0  0  0  0  0  0  0  0
   18.3321   20.3132   21.4231 H   0  0  0  0  0  0  0  0  0  0  0  0
   19.9822   18.8799   21.0699 C   0  0  0  0  0  0  0  0  0  0  0  0
   21.0031   19.0679   20.7104 H   0  0  0  0  0  0  0  0  0  0  0  0
   19.3983   18.5569   20.1975 H   0  0  0  0  0  0  0  0  0  0  0  0
   20.0006   17.7543   22.1242 C   0  0  0  0  0  0  0  0  0  0  0  0
   20.5880   18.0743   22.9960 H   0  0  0  0  0  0  0  0  0  0  0  0
   18.9782   17.5667   22.4807 H   0  0  0  0  0  0  0  0  0  0  0  0
   20.5947   16.4502   21.5551 C   0  0  0  0  0  0  0  0  0  0  0  0
   20.0066   16.0905   20.7006 H   0  0  0  0  0  0  0  0  0  0  0  0
   21.6289   16.6033   21.2196 H   0  0  0  0  0  0  0  0  0  0  0  0
   20.5996   15.6618   22.3190 H   0  0  0  0  0  0  0  0  0  0  0  0
  1  2  1  0  0  0  0
  1  3  2  0  0  0  0
  1  4  1  0  0  0  0
  4  5  1  0  0  0  0
  4  6  2  0  0  0  0
  6  7  1  0  0  0  0
  6  8  1  0  0  0  0
  8  9  1  0  0  0  0
  8 10  1  0  0  0  0
  8 11  1  0  0  0  0
 11 12  1  0  0  0  0
 11 13  1  0  0  0  0
 11 14  1  0  0  0  0
 14 15  1  0  0  0  0
 14 16  1  0  0  0  0
 14 17  1  0  0  0  0
M  END
> <VConfSearch Rank>
777

> <Conf_Id>
36

> <Delta U+W>
0.000

> <U+W>
-53.409

> <U>
9.048

> <W>
-62.457

> <W(PB)>
-64.540

> <W(SA)>
2.084

> <Valence>
2.652

> <Coulomb>
5.578

> <VdW>
0.818

> <VdW6>
-4.534

> <VdW12>
5.352

> <Bond>
0.063

> <Angle>
2.579

> <Pdih>
0.010

> <Idih>
0.000

> <Tether>
0.000

$$$$
VeraChem MOL file


 17 16  0  0  0  0  0  0  0  0999 V2000     
   17.3210   17.8435   23.5145 C   0  0  0  0  0  0  0  0  0  0  0  0
   16.4850   17.6036   22.6637 O   0  5  0  0  0  0  0  0  0  0  0  0
   17.0773   17.8176   24.7052 O   0  0  0  0  0  0  0  0  0  0  0  0
   18.7100   18.1848   23.1043 C   0  0  0  0  0  0  0  0  0  0  0  0
   19.4075   18.3879   23.9137 H   0  0  0  0  0  0  0  0  0  0  0  0
   19.1211   18.2515   21.8176 C   0  0  0  0  0  0  0  0  0  0  0  0
   18.4301   18.0520   20.9988 H   0  0  0  0  0  0  0  0  0  0  0  0
   20.5353   18.6011   21.4089 C   0  0  0  0  0  0  0  0  0  0  0  0
   20.7474   18.1769   20.4182 H   0  0  0  0  0  0  0  0  0  0  0  0
   21.2514   18.1432   22.1048 H   0  0  0  0  0  0  0  0  0  0  0  0
   20.7485   20.1283   21.3728 C   0  0  0  0  0  0  0  0  0  0  0  0
   20.0326   20.5838   20.6746 H   0  0  0  0  0  0  0  0  0  0  0  0
   20.5407   20.5539   22.3644 H   0  0  0  0  0  0  0  0  0  0  0  0
   22.1852   20.4932   20.9481 C   0  0  0  0  0  0  0  0  0  0  0  0
   22.4087   20.1063   19.9452 H   0  0  0  0  0  0  0  0  0  0  0  0
   22.3176   21.5828   20.9282 H   0  0  0  0  0  0  0  0  0  0  0  0
   22.9200   20.0752   21.6486 H   0  0  0  0  0  0  0  0  0  0  0  0
  1  2  1  0  0  0  0
  1  3  2  0  0  0  0
  1  4  1  0  0  0  0
  4  5  1  0  0  0  0
  4  6  2  0  0  0  0
  6  7  1  0  0  0  0
  6  8  1  0  0  0  0
  8  9  1  0  0  0  0
  8 10  1  0  0  0  0
  8 11  1  0  0  0  0
 11 12  1  0  0  0  0
 11 13  1  0  0  0  0
 11 14  1  0  0  0  0
 14 15  1  0  0  0  0
 14 16  1  0  0  0  0
 14 17  1  0  0  0  0
M  END
> <VConfSearch Rank>
778

> <Conf_Id>
1

> <Delta U+W>
0.030

> <U+W>
-53.378

> <U>
9.048

> <W>
-62.426

> <W(PB)>
-64.506

> <W(SA)>
2.080

> <Valence>
2.652

> <Coulomb>
5.578

> <VdW>
0.818

> <VdW6>
-4.535

> <VdW12>
5.352

> <Bond>
0.063

> <Angle>
2.579

> <Pdih>
0.010

> <Idih>
0.000

> <Tether>
0.000

$$$$
VeraChem MOL file


 17 16  0  0  0  0  0  0  0  0999 V2000     
   20.5952   16.2896   20.8950 C   0  0  0  0  0  0  0  0  0  0  0  0
   21.7451   16.4385   20.5260 O   0  5  0  0  0  0  0  0  0  0  0  0
   20.0781   15.1963   21.0183 O   0  0  0  0  0  0  0  0  0  0  0  0
   19.7643   17.4826   21.2118 C   0  0  0  0  0  0  0  0  0  0  0  0
   18.7458   17.2795   21.5348 H   0  0  0  0  0  0  0  0  0  0  0  0
   20.2090   18.7565   21.1206 C   0  0  0  0  0  0  0  0  0  0  0  0
   21.2285   18.9712   20.8013 H   0  0  0  0  0  0  0  0  0  0  0  0
   19.3585   19.9657   21.4484 C   0  0  0  0  0  0  0  0  0  0  0  0
   18.3405   19.8152   21.0643 H   0  0  0  0  0  0  0  0  0  0  0  0
   19.7532   20.8505   20.9311 H   0  0  0  0  0  0  0  0  0  0  0  0
   19.2909   20.2425   22.9665 C   0  0  0  0  0  0  0  0  0  0  0  0
   18.5806   21.0601   23.1512 H   0  0  0  0  0  0  0  0  0  0  0  0
   18.8952   19.3593   23.4868 H   0  0  0  0  0  0  0  0  0  0  0  0
   20.6640   20.6236   23.5598 C   0  0  0  0  0  0  0  0  0  0  0  0
   21.0736   21.5126   23.0628 H   0  0  0  0  0  0  0  0  0  0  0  0
   20.5733   20.8458   24.6310 H   0  0  0  0  0  0  0  0  0  0  0  0
   21.3858   19.8042   23.4463 H   0  0  0  0  0  0  0  0  0  0  0  0
  1  2  1  0  0  0  0
  1  3  2  0  0  0  0
  1  4  1  0  0  0  0
  4  5  1  0  0  0  0
  4  6  2  0  0  0  0
  6  7  1  0  0  0  0
  6  8  1  0  0  0  0
  8  9  1  0  0  0  0
  8 10  1  0  0  0  0
  8 11  1  0  0  0  0
 11 12  1  0  0  0  0
 11 13  1  0  0  0  0
 11 14  1  0  0  0  0
 14 15  1  0  0  0  0
 14 16  1  0  0  0  0
 14 17  1  0  0  0  0
M  END
> <VConfSearch Rank>
779

> <Conf_Id>
3

> <Delta U+W>
0.531

> <U+W>
-52.878

> <U>
10.067

> <W>
-62.945

> <W(PB)>
-64.982

> <W(SA)>
2.037

> <Valence>
2.779

> <Coulomb>
6.474

> <VdW>
0.815

> <VdW6>
-5.088

> <VdW12>
5.902

> <Bond>
0.078

> <Angle>
2.651

> <Pdih>
0.050

> <Idih>
0.000

> <Tether>
0.000

$$$$
VeraChem MOL file


 17 16  0  0  0  0  0  0  0  0999 V2000     
   19.8433   16.4055   23.4340 C   0  0  0  0  0  0  0  0  0  0  0  0
   19.1576   16.0430   24.3700 O   0  5  0  0  0  0  0  0  0  0  0  0
   20.8655   15.8339   23.1039 O   0  0  0  0  0  0  0  0  0  0  0  0
   19.3904   17.6008   22.6724 C   0  0  0  0  0  0  0  0  0  0  0  0
   18.4695   18.0633   23.0201 H   0  0  0  0  0  0  0  0  0  0  0  0
   20.0548   18.1153   21.6124 C   0  0  0  0  0  0  0  0  0  0  0  0
   20.9800   17.6603   21.2598 H   0  0  0  0  0  0  0  0  0  0  0  0
   19.5926   19.3340   20.8408 C   0  0  0  0  0  0  0  0  0  0  0  0
   18.5340   19.5433   21.0469 H   0  0  0  0  0  0  0  0  0  0  0  0
   19.6582   19.1232   19.7650 H   0  0  0  0  0  0  0  0  0  0  0  0
   20.4403   20.5852   21.1586 C   0  0  0  0  0  0  0  0  0  0  0  0
   21.4997   20.3759   20.9553 H   0  0  0  0  0  0  0  0  0  0  0  0
   20.1457   21.3991   20.4818 H   0  0  0  0  0  0  0  0  0  0  0  0
   20.2745   21.0600   22.6180 C   0  0  0  0  0  0  0  0  0  0  0  0
   20.6204   20.2949   23.3252 H   0  0  0  0  0  0  0  0  0  0  0  0
   20.8594   21.9715   22.7963 H   0  0  0  0  0  0  0  0  0  0  0  0
   19.2230   21.2825   22.8414 H   0  0  0  0  0  0  0  0  0  0  0  0
  1  2  1  0  0  0  0
  1  3  2  0  0  0  0
  1  4  1  0  0  0  0
  4  5  1  0  0  0  0
  4  6  2  0  0  0  0
  6  7  1  0  0  0  0
  6  8  1  0  0  0  0
  8  9  1  0  0  0  0
  8 10  1  0  0  0  0
  8 11  1  0  0  0  0
 11 12  1  0  0  0  0
 11 13  1  0  0  0  0
 11 14  1  0  0  0  0
 14 15  1  0  0  0  0
 14 16  1  0  0  0  0
 14 17  1  0  0  0  0
M  END
> <VConfSearch Rank>
780

> <Conf_Id>
45

> <Delta U+W>
0.562

> <U+W>
-52.846

> <U>
10.243

> <W>
-63.089

> <W(PB)>
-65.116

> <W(SA)>
2.026

> <Valence>
2.822

> <Coulomb>
6.637

> <VdW>
0.785

> <VdW6>
-5.216

> <VdW12>
6.001

> <Bond>
0.080

> <Angle>
2.678

> <Pdih>
0.064

> <Idih>
0.000

> <Tether>
0.000

$$$$
VeraChem MOL file


 17 16  0  0  0  0  0  0  0  0999 V2000     
   18.4753   16.7778   20.0164 C   0  0  0  0  0  0  0  0  0  0  0  0
   18.7487   16.4020   18.8931 O   0  5  0  0  0  0  0  0  0  0  0  0
   17.4258   16.5038   20.5675 O   0  0  0  0  0  0  0  0  0  0  0  0
   19.4850   17.6068   20.7288 C   0  0  0  0  0  0  0  0  0  0  0  0
   20.4007   17.8150   20.1801 H   0  0  0  0  0  0  0  0  0  0  0  0
   19.3142   18.0932   21.9791 C   0  0  0  0  0  0  0  0  0  0  0  0
   18.3997   17.8927   22.5370 H   0  0  0  0  0  0  0  0  0  0  0  0
   20.3452   18.9374   22.6958 C   0  0  0  0  0  0  0  0  0  0  0  0
   21.3550   18.5671   22.4722 H   0  0  0  0  0  0  0  0  0  0  0  0
   20.2100   18.8402   23.7814 H   0  0  0  0  0  0  0  0  0  0  0  0
   20.2342   20.4221   22.2928 C   0  0  0  0  0  0  0  0  0  0  0  0
   20.3735   20.5216   21.2073 H   0  0  0  0  0  0  0  0  0  0  0  0
   19.2241   20.7907   22.5192 H   0  0  0  0  0  0  0  0  0  0  0  0
   21.2757   21.2910   23.0262 C   0  0  0  0  0  0  0  0  0  0  0  0
   21.1385   21.2346   24.1140 H   0  0  0  0  0  0  0  0  0  0  0  0
   22.2967   20.9621   22.7917 H   0  0  0  0  0  0  0  0  0  0  0  0
   21.1815   22.3429   22.7268 H   0  0  0  0  0  0  0  0  0  0  0  0
  1  2  1  0  0  0  0
  1  3  2  0  0  0  0
  1  4  1  0  0  0  0
  4  5  1  0  0  0  0
  4  6  2  0  0  0  0
  6  7  1  0  0  0  0
  6  8  1  0  0  0  0
  8  9  1  0  0  0  0
  8 10  1  0  0  0  0
  8 11  1  0  0  0  0
 11 12  1  0  0  0  0
 11 13  1  0  0  0  0
 11 14  1  0  0  0  0
 14 15  1  0  0  0  0
 14 16  1  0  0  0  0
 14 17  1  0  0  0  0
M  END
> <VConfSearch Rank>
781

> <Conf_Id>
36

> <Delta U+W>
0.000

> <U+W>
-53.409

> <U>
9.048

> <W>
-62.457

> <W(PB)>
-64.540

> <W(SA)>
2.084

> <Valence>
2.652

> <Coulomb>
5.578

> <VdW>
0.818

> <VdW6>
-4.534

> <VdW12>
5.352

> <Bond>
0.063

> <Angle>
2.579

> <Pdih>
0.010

> <Idih>
0.000

> <Tether>
0.000

$$$$
VeraChem MOL file


 17 16  0  0  0  0  0  0  0  0999 V2000     
   22.6506   18.2419   19.9898 C   0  0  0  0  0  0  0  0  0  0  0  0
   22.7338   17.0285   20.0226 O   0  5  0  0  0  0  0  0  0  0  0  0
   23.5167   18.9502   19.5144 O   0  0  0  0  0  0  0  0  0  0  0  0
   21.4448   18.9112   20.5485 C   0  0  0  0  0  0  0  0  0  0  0  0
   21.4336   19.9971   20.4875 H   0  0  0  0  0  0  0  0  0  0  0  0
   20.4066   18.2494   21.1080 C   0  0  0  0  0  0  0  0  0  0  0  0
   20.4084   17.1617   21.1763 H   0  0  0  0  0  0  0  0  0  0  0  0
   19.1847   18.9379   21.6757 C   0  0  0  0  0  0  0  0  0  0  0  0
   18.3315   18.2465   21.6580 H   0  0  0  0  0  0  0  0  0  0  0  0
   18.9076   19.7925   21.0436 H   0  0  0  0  0  0  0  0  0  0  0  0
   19.4305   19.4174   23.1209 C   0  0  0  0  0  0  0  0  0  0  0  0
   19.7054   18.5606   23.7516 H   0  0  0  0  0  0  0  0  0  0  0  0
   20.2815   20.1125   23.1398 H   0  0  0  0  0  0  0  0  0  0  0  0
   18.1865   20.1122   23.7101 C   0  0  0  0  0  0  0  0  0  0  0  0
   17.3279   19.4283   23.7323 H   0  0  0  0  0  0  0  0  0  0  0  0
   18.3803   20.4461   24.7378 H   0  0  0  0  0  0  0  0  0  0  0  0
   17.9089   20.9919   23.1147 H   0  0  0  0  0  0  0  0  0  0  0  0
  1  2  1  0  0  0  0
  1  3  2  0  0  0  0
  1  4  1  0  0  0  0
  4  5  1  0  0  0  0
  4  6  2  0  0  0  0
  6  7  1  0  0  0  0
  6  8  1  0  0  0  0
  8  9  1  0  0  0  0
  8 10  1  0  0  0  0
  8 11  1  0  0  0  0
 11 12  1  0  0  0  0
 11 13  1  0  0  0  0
 11 14  1  0  0  0  0
 14 15  1  0  0  0  0
 14 16  1  0  0  0  0
 14 17  1  0  0  0  0
M  END
> <VConfSearch Rank>
782

> <Conf_Id>
1

> <Delta U+W>
0.030

> <U+W>
-53.378

> <U>
9.048

> <W>
-62.426

> <W(PB)>
-64.506

> <W(SA)>
2.080

> <Valence>
2.652

> <Coulomb>
5.578

> <VdW>
0.818

> <VdW6>
-4.535

> <VdW12>
5.352

> <Bond>
0.063

> <Angle>
2.579

> <Pdih>
0.010

> <Idih>
0.000

> <Tether>
0.000

$$$$
VeraChem MOL file


 17 16  0  0  0  0  0  0  0  0999 V2000     
   20.0784   20.7619   24.6376 C   0  0  0  0  0  0  0  0  0  0  0  0
   19.3520   20.0932   25.3486 O   0  5  0  0  0  0  0  0  0  0  0  0
   20.8154   21.6250   25.0732 O   0  0  0  0  0  0  0  0  0  0  0  0
   20.0803   20.5345   23.1671 C   0  0  0  0  0  0  0  0  0  0  0  0
   20.7515   21.1662   22.5899 H   0  0  0  0  0  0  0  0  0  0  0  0
   19.3140   19.6088   22.5467 C   0  0  0  0  0  0  0  0  0  0  0  0
   18.6406   18.9682   23.1157 H   0  0  0  0  0  0  0  0  0  0  0  0
   19.3242   19.3803   21.0498 C   0  0  0  0  0  0  0  0  0  0  0  0
   19.3729   20.3468   20.5301 H   0  0  0  0  0  0  0  0  0  0  0  0
   18.3810   18.9121   20.7377 H   0  0  0  0  0  0  0  0  0  0  0  0
   20.5113   18.5018   20.5975 C   0  0  0  0  0  0  0  0  0  0  0  0
   20.5279   18.4581   19.4997 H   0  0  0  0  0  0  0  0  0  0  0  0
   21.4566   18.9685   20.9073 H   0  0  0  0  0  0  0  0  0  0  0  0
   20.4319   17.0659   21.1584 C   0  0  0  0  0  0  0  0  0  0  0  0
   19.4996   16.5750   20.8504 H   0  0  0  0  0  0  0  0  0  0  0  0
   21.2710   16.4612   20.7907 H   0  0  0  0  0  0  0  0  0  0  0  0
   20.4730   17.0664   22.2554 H   0  0  0  0  0  0  0  0  0  0  0  0
  1  2  1  0  0  0  0
  1  3  2  0  0  0  0
  1  4  1  0  0  0  0
  4  5  1  0  0  0  0
  4  6  2  0  0  0  0
  6  7  1  0  0  0  0
  6  8  1  0  0  0  0
  8  9  1  0  0  0  0
  8 10  1  0  0  0  0
  8 11  1  0  0  0  0
 11 12  1  0  0  0  0
 11 13  1  0  0  0  0
 11 14  1  0  0  0  0
 14 15  1  0  0  0  0
 14 16  1  0  0  0  0
 14 17  1  0  0  0  0
M  END
> <VConfSearch Rank>
783

> <Conf_Id>
3

> <Delta U+W>
0.531

> <U+W>
-52.878

> <U>
10.067

> <W>
-62.945

> <W(PB)>
-64.982

> <W(SA)>
2.037

> <Valence>
2.779

> <Coulomb>
6.474

> <VdW>
0.815

> <VdW6>
-5.088

> <VdW12>
5.902

> <Bond>
0.078

> <Angle>
2.651

> <Pdih>
0.050

> <Idih>
0.000

> <Tether>
0.000

$$$$
VeraChem MOL file


 17 16  0  0  0  0  0  0  0  0999 V2000     
   17.9677   18.8807   24.3201 C   0  0  0  0  0  0  0  0  0  0  0  0
   18.1162   19.0607   25.5131 O   0  5  0  0  0  0  0  0  0  0  0  0
   17.0497   18.2281   23.8599 O   0  0  0  0  0  0  0  0  0  0  0  0
   18.9632   19.4983   23.4026 C   0  0  0  0  0  0  0  0  0  0  0  0
   19.7574   20.0680   23.8794 H   0  0  0  0  0  0  0  0  0  0  0  0
   18.9226   19.3788   22.0559 C   0  0  0  0  0  0  0  0  0  0  0  0
   18.1324   18.8067   21.5703 H   0  0  0  0  0  0  0  0  0  0  0  0
   19.9391   20.0064   21.1247 C   0  0  0  0  0  0  0  0  0  0  0  0
   20.5020   20.7951   21.6421 H   0  0  0  0  0  0  0  0  0  0  0  0
   19.4110   20.5004   20.2982 H   0  0  0  0  0  0  0  0  0  0  0  0
   20.9203   18.9662   20.5413 C   0  0  0  0  0  0  0  0  0  0  0  0
   20.3580   18.1754   20.0258 H   0  0  0  0  0  0  0  0  0  0  0  0
   21.5474   19.4519   19.7810 H   0  0  0  0  0  0  0  0  0  0  0  0
   21.8310   18.3392   21.6186 C   0  0  0  0  0  0  0  0  0  0  0  0
   21.2421   17.7884   22.3635 H   0  0  0  0  0  0  0  0  0  0  0  0
   22.5398   17.6357   21.1632 H   0  0  0  0  0  0  0  0  0  0  0  0
   22.4090   19.1119   22.1421 H   0  0  0  0  0  0  0  0  0  0  0  0
  1  2  1  0  0  0  0
  1  3  2  0  0  0  0
  1  4  1  0  0  0  0
  4  5  1  0  0  0  0
  4  6  2  0  0  0  0
  6  7  1  0  0  0  0
  6  8  1  0  0  0  0
  8  9  1  0  0  0  0
  8 10  1  0  0  0  0
  8 11  1  0  0  0  0
 11 12  1  0  0  0  0
 11 13  1  0  0  0  0
 11 14  1  0  0  0  0
 14 15  1  0  0  0  0
 14 16  1  0  0  0  0
 14 17  1  0  0  0  0
M  END
> <VConfSearch Rank>
784

> <Conf_Id>
45

> <Delta U+W>
0.562

> <U+W>
-52.846

> <U>
10.243

> <W>
-63.089

> <W(PB)>
-65.116

> <W(SA)>
2.026

> <Valence>
2.822

> <Coulomb>
6.637

> <VdW>
0.785

> <VdW6>
-5.216

> <VdW12>
6.001

> <Bond>
0.080

> <Angle>
2.678

> <Pdih>
0.064

> <Idih>
0.000

> <Tether>
0.000

$$$$
VeraChem MOL file


 17 16  0  0  0  0  0  0  0  0999 V2000     
   19.3500   21.8029   23.8511 C   0  0  0  0  0  0  0  0  0  0  0  0
   18.2824   22.2261   24.2496 O   0  5  0  0  0  0  0  0  0  0  0  0
   20.3814   22.4449   23.9171 O   0  0  0  0  0  0  0  0  0  0  0  0
   19.3713   20.4366   23.2619 C   0  0  0  0  0  0  0  0  0  0  0  0
   18.4161   19.9173   23.2330 H   0  0  0  0  0  0  0  0  0  0  0  0
   20.4855   19.8414   22.7789 C   0  0  0  0  0  0  0  0  0  0  0  0
   21.4472   20.3535   22.8007 H   0  0  0  0  0  0  0  0  0  0  0  0
   20.4981   18.4523   22.1793 C   0  0  0  0  0  0  0  0  0  0  0  0
   19.8233   17.7937   22.7431 H   0  0  0  0  0  0  0  0  0  0  0  0
   21.5041   18.0212   22.2711 H   0  0  0  0  0  0  0  0  0  0  0  0
   20.0807   18.4773   20.6947 C   0  0  0  0  0  0  0  0  0  0  0  0
   19.0726   18.9045   20.6015 H   0  0  0  0  0  0  0  0  0  0  0  0
   20.7583   19.1349   20.1326 H   0  0  0  0  0  0  0  0  0  0  0  0
   20.1001   17.0661   20.0735 C   0  0  0  0  0  0  0  0  0  0  0  0
   21.1055   16.6279   20.1248 H   0  0  0  0  0  0  0  0  0  0  0  0
   19.4067   16.3962   20.5986 H   0  0  0  0  0  0  0  0  0  0  0  0
   19.8006   17.1041   19.0180 H   0  0  0  0  0  0  0  0  0  0  0  0
  1  2  1  0  0  0  0
  1  3  2  0  0  0  0
  1  4  1  0  0  0  0
  4  5  1  0  0  0  0
  4  6  2  0  0  0  0
  6  7  1  0  0  0  0
  6  8  1  0  0  0  0
  8  9  1  0  0  0  0
  8 10  1  0  0  0  0
  8 11  1  0  0  0  0
 11 12  1  0  0  0  0
 11 13  1  0  0  0  0
 11 14  1  0  0  0  0
 14 15  1  0  0  0  0
 14 16  1  0  0  0  0
 14 17  1  0  0  0  0
M  END
> <VConfSearch Rank>
785

> <Conf_Id>
36

> <Delta U+W>
0.000

> <U+W>
-53.409

> <U>
9.048

> <W>
-62.457

> <W(PB)>
-64.540

> <W(SA)>
2.084

> <Valence>
2.652

> <Coulomb>
5.578

> <VdW>
0.818

> <VdW6>
-4.534

> <VdW12>
5.352

> <Bond>
0.063

> <Angle>
2.579

> <Pdih>
0.010

> <Idih>
0.000

> <Tether>
0.000

$$$$
VeraChem MOL file


 17 16  0  0  0  0  0  0  0  0999 V2000     
   20.8161   16.0527   20.6933 C   0  0  0  0  0  0  0  0  0  0  0  0
   21.4281   16.2384   19.6582 O   0  5  0  0  0  0  0  0  0  0  0  0
   20.4202   14.9564   21.0384 O   0  0  0  0  0  0  0  0  0  0  0  0
   20.5287   17.2022   21.5935 C   0  0  0  0  0  0  0  0  0  0  0  0
   19.9784   16.9676   22.5018 H   0  0  0  0  0  0  0  0  0  0  0  0
   20.9076   18.4746   21.3356 C   0  0  0  0  0  0  0  0  0  0  0  0
   21.4574   18.7211   20.4275 H   0  0  0  0  0  0  0  0  0  0  0  0
   20.6096   19.6382   22.2556 C   0  0  0  0  0  0  0  0  0  0  0  0
   21.3503   20.4332   22.0948 H   0  0  0  0  0  0  0  0  0  0  0  0
   20.7109   19.3241   23.3034 H   0  0  0  0  0  0  0  0  0  0  0  0
   19.1923   20.1968   22.0143 C   0  0  0  0  0  0  0  0  0  0  0  0
   19.0942   20.5123   20.9663 H   0  0  0  0  0  0  0  0  0  0  0  0
   18.4497   19.4036   22.1788 H   0  0  0  0  0  0  0  0  0  0  0  0
   18.8843   21.3893   22.9420 C   0  0  0  0  0  0  0  0  0  0  0  0
   19.5939   22.2103   22.7754 H   0  0  0  0  0  0  0  0  0  0  0  0
   17.8726   21.7728   22.7558 H   0  0  0  0  0  0  0  0  0  0  0  0
   18.9452   21.0921   23.9971 H   0  0  0  0  0  0  0  0  0  0  0  0
  1  2  1  0  0  0  0
  1  3  2  0  0  0  0
  1  4  1  0  0  0  0
  4  5  1  0  0  0  0
  4  6  2  0  0  0  0
  6  7  1  0  0  0  0
  6  8  1  0  0  0  0
  8  9  1  0  0  0  0
  8 10  1  0  0  0  0
  8 11  1  0  0  0  0
 11 12  1  0  0  0  0
 11 13  1  0  0  0  0
 11 14  1  0  0  0  0
 14 15  1  0  0  0  0
 14 16  1  0  0  0  0
 14 17  1  0  0  0  0
M  END
> <VConfSearch Rank>
786

> <Conf_Id>
1

> <Delta U+W>
0.030

> <U+W>
-53.378

> <U>
9.048

> <W>
-62.426

> <W(PB)>
-64.506

> <W(SA)>
2.080

> <Valence>
2.652

> <Coulomb>
5.578

> <VdW>
0.818

> <VdW6>
-4.535

> <VdW12>
5.352

> <Bond>
0.063

> <Angle>
2.579

> <Pdih>
0.010

> <Idih>
0.000

> <Tether>
0.000

$$$$
VeraChem MOL file


 17 16  0  0  0  0  0  0  0  0999 V2000     
   18.8390   18.6735   24.8685 C   0  0  0  0  0  0  0  0  0  0  0  0
   17.6756   18.4520   24.5893 O   0  5  0  0  0  0  0  0  0  0  0  0
   19.3145   18.4259   25.9596 O   0  0  0  0  0  0  0  0  0  0  0  0
   19.7382   19.2766   23.8478 C   0  0  0  0  0  0  0  0  0  0  0  0
   20.7648   19.4494   24.1622 H   0  0  0  0  0  0  0  0  0  0  0  0
   19.3454   19.6017   22.5951 C   0  0  0  0  0  0  0  0  0  0  0  0
   18.3200   19.4297   22.2685 H   0  0  0  0  0  0  0  0  0  0  0  0
   20.2673   20.2117   21.5603 C   0  0  0  0  0  0  0  0  0  0  0  0
   20.9137   20.9601   22.0384 H   0  0  0  0  0  0  0  0  0  0  0  0
   19.6775   20.7524   20.8079 H   0  0  0  0  0  0  0  0  0  0  0  0
   21.1492   19.1532   20.8621 C   0  0  0  0  0  0  0  0  0  0  0  0
   21.8666   19.6615   20.2032 H   0  0  0  0  0  0  0  0  0  0  0  0
   21.7415   18.6113   21.6124 H   0  0  0  0  0  0  0  0  0  0  0  0
   20.3222   18.1505   20.0294 C   0  0  0  0  0  0  0  0  0  0  0  0
   19.7309   18.6695   19.2637 H   0  0  0  0  0  0  0  0  0  0  0  0
   20.9814   17.4348   19.5212 H   0  0  0  0  0  0  0  0  0  0  0  0
   19.6335   17.5799   20.6661 H   0  0  0  0  0  0  0  0  0  0  0  0
  1  2  1  0  0  0  0
  1  3  2  0  0  0  0
  1  4  1  0  0  0  0
  4  5  1  0  0  0  0
  4  6  2  0  0  0  0
  6  7  1  0  0  0  0
  6  8  1  0  0  0  0
  8  9  1  0  0  0  0
  8 10  1  0  0  0  0
  8 11  1  0  0  0  0
 11 12  1  0  0  0  0
 11 13  1  0  0  0  0
 11 14  1  0  0  0  0
 14 15  1  0  0  0  0
 14 16  1  0  0  0  0
 14 17  1  0  0  0  0
M  END
> <VConfSearch Rank>
787

> <Conf_Id>
3

> <Delta U+W>
0.531

> <U+W>
-52.878

> <U>
10.067

> <W>
-62.945

> <W(PB)>
-64.982

> <W(SA)>
2.037

> <Valence>
2.779

> <Coulomb>
6.474

> <VdW>
0.815

> <VdW6>
-5.088

> <VdW12>
5.902

> <Bond>
0.078

> <Angle>
2.651

> <Pdih>
0.050

> <Idih>
0.000

> <Tether>
0.000

$$$$
VeraChem MOL file


 17 16  0  0  0  0  0  0  0  0999 V2000     
   16.9981   18.6069   22.0366 C   0  0  0  0  0  0  0  0  0  0  0  0
   16.1822   18.8628   21.1724 O   0  5  0  0  0  0  0  0  0  0  0  0
   16.6922   18.4231   23.1998 O   0  0  0  0  0  0  0  0  0  0  0  0
   18.4262   18.5169   21.6286 C   0  0  0  0  0  0  0  0  0  0  0  0
   18.6299   18.6920   20.5747 H   0  0  0  0  0  0  0  0  0  0  0  0
   19.4381   18.2424   22.4831 C   0  0  0  0  0  0  0  0  0  0  0  0
   19.2433   18.0694   23.5412 H   0  0  0  0  0  0  0  0  0  0  0  0
   20.8914   18.1542   22.0652 C   0  0  0  0  0  0  0  0  0  0  0  0
   20.9738   18.0339   20.9764 H   0  0  0  0  0  0  0  0  0  0  0  0
   21.3370   17.2526   22.5064 H   0  0  0  0  0  0  0  0  0  0  0  0
   21.7063   19.3868   22.5143 C   0  0  0  0  0  0  0  0  0  0  0  0
   21.6223   19.5094   23.6030 H   0  0  0  0  0  0  0  0  0  0  0  0
   22.7694   19.2114   22.2994 H   0  0  0  0  0  0  0  0  0  0  0  0
   21.2581   20.6844   21.8084 C   0  0  0  0  0  0  0  0  0  0  0  0
   20.2159   20.9282   22.0521 H   0  0  0  0  0  0  0  0  0  0  0  0
   21.8834   21.5303   22.1221 H   0  0  0  0  0  0  0  0  0  0  0  0
   21.3412   20.5870   20.7182 H   0  0  0  0  0  0  0  0  0  0  0  0
  1  2  1  0  0  0  0
  1  3  2  0  0  0  0
  1  4  1  0  0  0  0
  4  5  1  0  0  0  0
  4  6  2  0  0  0  0
  6  7  1  0  0  0  0
  6  8  1  0  0  0  0
  8  9  1  0  0  0  0
  8 10  1  0  0  0  0
  8 11  1  0  0  0  0
 11 12  1  0  0  0  0
 11 13  1  0  0  0  0
 11 14  1  0  0  0  0
 14 15  1  0  0  0  0
 14 16  1  0  0  0  0
 14 17  1  0  0  0  0
M  END
> <VConfSearch Rank>
788

> <Conf_Id>
45

> <Delta U+W>
0.562

> <U+W>
-52.846

> <U>
10.243

> <W>
-63.089

> <W(PB)>
-65.116

> <W(SA)>
2.026

> <Valence>
2.822

> <Coulomb>
6.637

> <VdW>
0.785

> <VdW6>
-5.216

> <VdW12>
6.001

> <Bond>
0.080

> <Angle>
2.678

> <Pdih>
0.064

> <Idih>
0.000

> <Tether>
0.000

$$$$
VeraChem MOL file


 17 16  0  0  0  0  0  0  0  0999 V2000     
   19.6807   19.4248   25.2581 C   0  0  0  0  0  0  0  0  0  0  0  0
   18.9394   18.8341   26.0190 O   0  5  0  0  0  0  0  0  0  0  0  0
   20.2999   20.4216   25.5797 O   0  0  0  0  0  0  0  0  0  0  0  0
   19.8219   18.8853   23.8785 C   0  0  0  0  0  0  0  0  0  0  0  0
   19.2416   17.9927   23.6563 H   0  0  0  0  0  0  0  0  0  0  0  0
   20.6092   19.4402   22.9291 C   0  0  0  0  0  0  0  0  0  0  0  0
   21.1931   20.3359   23.1403 H   0  0  0  0  0  0  0  0  0  0  0  0
   20.7455   18.8864   21.5277 C   0  0  0  0  0  0  0  0  0  0  0  0
   20.7515   17.7882   21.5567 H   0  0  0  0  0  0  0  0  0  0  0  0
   21.7110   19.1930   21.1033 H   0  0  0  0  0  0  0  0  0  0  0  0
   19.6020   19.3767   20.6161 C   0  0  0  0  0  0  0  0  0  0  0  0
   18.6353   19.0670   21.0371 H   0  0  0  0  0  0  0  0  0  0  0  0
   19.5993   20.4752   20.5870 H   0  0  0  0  0  0  0  0  0  0  0  0
   19.7389   18.8241   19.1831 C   0  0  0  0  0  0  0  0  0  0  0  0
   20.6841   19.1459   18.7264 H   0  0  0  0  0  0  0  0  0  0  0  0
   19.7132   17.7265   19.1812 H   0  0  0  0  0  0  0  0  0  0  0  0
   18.9172   19.1834   18.5499 H   0  0  0  0  0  0  0  0  0  0  0  0
  1  2  1  0  0  0  0
  1  3  2  0  0  0  0
  1  4  1  0  0  0  0
  4  5  1  0  0  0  0
  4  6  2  0  0  0  0
  6  7  1  0  0  0  0
  6  8  1  0  0  0  0
  8  9  1  0  0  0  0
  8 10  1  0  0  0  0
  8 11  1  0  0  0  0
 11 12  1  0  0  0  0
 11 13  1  0  0  0  0
 11 14  1  0  0  0  0
 14 15  1  0  0  0  0
 14 16  1  0  0  0  0
 14 17  1  0  0  0  0
M  END
> <VConfSearch Rank>
789

> <Conf_Id>
36

> <Delta U+W>
0.000

> <U+W>
-53.409

> <U>
9.048

> <W>
-62.457

> <W(PB)>
-64.540

> <W(SA)>
2.084

> <Valence>
2.652

> <Coulomb>
5.578

> <VdW>
0.818

> <VdW6>
-4.534

> <VdW12>
5.352

> <Bond>
0.063

> <Angle>
2.579

> <Pdih>
0.010

> <Idih>
0.000

> <Tether>
0.000

$$$$
VeraChem MOL file


 17 16  0  0  0  0  0  0  0  0999 V2000     
   21.4696   16.9216   24.0450 C   0  0  0  0  0  0  0  0  0  0  0  0
   20.5736   16.2819   24.5631 O   0  5  0  0  0  0  0  0  0  0  0  0
   22.6206   16.8798   24.4339 O   0  0  0  0  0  0  0  0  0  0  0  0
   21.1683   17.7995   22.8820 C   0  0  0  0  0  0  0  0  0  0  0  0
   22.0135   18.3431   22.4661 H   0  0  0  0  0  0  0  0  0  0  0  0
   19.9351   17.9434   22.3457 C   0  0  0  0  0  0  0  0  0  0  0  0
   19.0808   17.4051   22.7559 H   0  0  0  0  0  0  0  0  0  0  0  0
   19.6368   18.8399   21.1639 C   0  0  0  0  0  0  0  0  0  0  0  0
   18.7387   18.4781   20.6453 H   0  0  0  0  0  0  0  0  0  0  0  0
   20.4590   18.7892   20.4372 H   0  0  0  0  0  0  0  0  0  0  0  0
   19.4232   20.3017   21.6073 C   0  0  0  0  0  0  0  0  0  0  0  0
   18.5989   20.3500   22.3325 H   0  0  0  0  0  0  0  0  0  0  0  0
   20.3225   20.6665   22.1228 H   0  0  0  0  0  0  0  0  0  0  0  0
   19.1095   21.2204   20.4094 C   0  0  0  0  0  0  0  0  0  0  0  0
   18.1957   20.8962   19.8943 H   0  0  0  0  0  0  0  0  0  0  0  0
   18.9608   22.2552   20.7441 H   0  0  0  0  0  0  0  0  0  0  0  0
   19.9330   21.2142   19.6833 H   0  0  0  0  0  0  0  0  0  0  0  0
  1  2  1  0  0  0  0
  1  3  2  0  0  0  0
  1  4  1  0  0  0  0
  4  5  1  0  0  0  0
  4  6  2  0  0  0  0
  6  7  1  0  0  0  0
  6  8  1  0  0  0  0
  8  9  1  0  0  0  0
  8 10  1  0  0  0  0
  8 11  1  0  0  0  0
 11 12  1  0  0  0  0
 11 13  1  0  0  0  0
 11 14  1  0  0  0  0
 14 15  1  0  0  0  0
 14 16  1  0  0  0  0
 14 17  1  0  0  0  0
M  END
> <VConfSearch Rank>
790

> <Conf_Id>
1

> <Delta U+W>
0.030

> <U+W>
-53.378

> <U>
9.048

> <W>
-62.426

> <W(PB)>
-64.506

> <W(SA)>
2.080

> <Valence>
2.652

> <Coulomb>
5.578

> <VdW>
0.818

> <VdW6>
-4.535

> <VdW12>
5.352

> <Bond>
0.063

> <Angle>
2.579

> <Pdih>
0.010

> <Idih>
0.000

> <Tether>
0.000

$$$$
VeraChem MOL file


 17 16  0  0  0  0  0  0  0  0999 V2000     
   22.9602   19.6713   21.3468 C   0  0  0  0  0  0  0  0  0  0  0  0
   23.1660   20.6408   22.0527 O   0  5  0  0  0  0  0  0  0  0  0  0
   23.8541   19.0276   20.8328 O   0  0  0  0  0  0  0  0  0  0  0  0
   21.5615   19.2371   21.0835 C   0  0  0  0  0  0  0  0  0  0  0  0
   21.4477   18.3647   20.4442 H   0  0  0  0  0  0  0  0  0  0  0  0
   20.4718   19.8574   21.5901 C   0  0  0  0  0  0  0  0  0  0  0  0
   20.5745   20.7303   22.2345 H   0  0  0  0  0  0  0  0  0  0  0  0
   19.0512   19.4073   21.3209 C   0  0  0  0  0  0  0  0  0  0  0  0
   18.9522   19.1107   20.2679 H   0  0  0  0  0  0  0  0  0  0  0  0
   18.3595   20.2476   21.4686 H   0  0  0  0  0  0  0  0  0  0  0  0
   18.6284   18.2260   22.2216 C   0  0  0  0  0  0  0  0  0  0  0  0
   17.6344   17.8756   21.9113 H   0  0  0  0  0  0  0  0  0  0  0  0
   19.3181   17.3832   22.0750 H   0  0  0  0  0  0  0  0  0  0  0  0
   18.5847   18.6081   23.7165 C   0  0  0  0  0  0  0  0  0  0  0  0
   17.8912   19.4415   23.8887 H   0  0  0  0  0  0  0  0  0  0  0  0
   18.2489   17.7569   24.3227 H   0  0  0  0  0  0  0  0  0  0  0  0
   19.5771   18.9077   24.0779 H   0  0  0  0  0  0  0  0  0  0  0  0
  1  2  1  0  0  0  0
  1  3  2  0  0  0  0
  1  4  1  0  0  0  0
  4  5  1  0  0  0  0
  4  6  2  0  0  0  0
  6  7  1  0  0  0  0
  6  8  1  0  0  0  0
  8  9  1  0  0  0  0
  8 10  1  0  0  0  0
  8 11  1  0  0  0  0
 11 12  1  0  0  0  0
 11 13  1  0  0  0  0
 11 14  1  0  0  0  0
 14 15  1  0  0  0  0
 14 16  1  0  0  0  0
 14 17  1  0  0  0  0
M  END
> <VConfSearch Rank>
791

> <Conf_Id>
3

> <Delta U+W>
0.531

> <U+W>
-52.878

> <U>
10.067

> <W>
-62.945

> <W(PB)>
-64.982

> <W(SA)>
2.037

> <Valence>
2.779

> <Coulomb>
6.474

> <VdW>
0.815

> <VdW6>
-5.088

> <VdW12>
5.902

> <Bond>
0.078

> <Angle>
2.651

> <Pdih>
0.050

> <Idih>
0.000

> <Tether>
0.000

$$$$
VeraChem MOL file


 17 16  0  0  0  0  0  0  0  0999 V2000     
   20.6908   21.6882   23.4577 C   0  0  0  0  0  0  0  0  0  0  0  0
   21.7775   22.2116   23.6084 O   0  5  0  0  0  0  0  0  0  0  0  0
   19.7294   21.9495   24.1563 O   0  0  0  0  0  0  0  0  0  0  0  0
   20.5545   20.6901   22.3626 C   0  0  0  0  0  0  0  0  0  0  0  0
   21.4516   20.5038   21.7769 H   0  0  0  0  0  0  0  0  0  0  0  0
   19.4074   20.0300   22.0831 C   0  0  0  0  0  0  0  0  0  0  0  0
   18.5049   20.2079   22.6673 H   0  0  0  0  0  0  0  0  0  0  0  0
   19.2725   19.0123   20.9693 C   0  0  0  0  0  0  0  0  0  0  0  0
   20.0998   19.1111   20.2533 H   0  0  0  0  0  0  0  0  0  0  0  0
   18.3537   19.2190   20.4045 H   0  0  0  0  0  0  0  0  0  0  0  0
   19.2177   17.5638   21.5022 C   0  0  0  0  0  0  0  0  0  0  0  0
   18.3921   17.4648   22.2205 H   0  0  0  0  0  0  0  0  0  0  0  0
   18.9923   16.8837   20.6693 H   0  0  0  0  0  0  0  0  0  0  0  0
   20.5404   17.1248   22.1660 C   0  0  0  0  0  0  0  0  0  0  0  0
   20.7670   17.7427   23.0445 H   0  0  0  0  0  0  0  0  0  0  0  0
   20.4781   16.0800   22.4969 H   0  0  0  0  0  0  0  0  0  0  0  0
   21.3792   17.2085   21.4628 H   0  0  0  0  0  0  0  0  0  0  0  0
  1  2  1  0  0  0  0
  1  3  2  0  0  0  0
  1  4  1  0  0  0  0
  4  5  1  0  0  0  0
  4  6  2  0  0  0  0
  6  7  1  0  0  0  0
  6  8  1  0  0  0  0
  8  9  1  0  0  0  0
  8 10  1  0  0  0  0
  8 11  1  0  0  0  0
 11 12  1  0  0  0  0
 11 13  1  0  0  0  0
 11 14  1  0  0  0  0
 14 15  1  0  0  0  0
 14 16  1  0  0  0  0
 14 17  1  0  0  0  0
M  END
> <VConfSearch Rank>
792

> <Conf_Id>
45

> <Delta U+W>
0.562

> <U+W>
-52.846

> <U>
10.243

> <W>
-63.089

> <W(PB)>
-65.116

> <W(SA)>
2.026

> <Valence>
2.822

> <Coulomb>
6.637

> <VdW>
0.785

> <VdW6>
-5.216

> <VdW12>
6.001

> <Bond>
0.080

> <Angle>
2.678

> <Pdih>
0.064

> <Idih>
0.000

> <Tether>
0.000

$$$$
VeraChem MOL file


 17 16  0  0  0  0  0  0  0  0999 V2000     
   20.8381   22.2835   21.1123 C   0  0  0  0  0  0  0  0  0  0  0  0
   20.2260   23.0992   20.4508 O   0  5  0  0  0  0  0  0  0  0  0  0
   22.0074   22.4242   21.4178 O   0  0  0  0  0  0  0  0  0  0  0  0
   20.1033   21.0685   21.5573 C   0  0  0  0  0  0  0  0  0  0  0  0
   19.0618   21.0047   21.2504 H   0  0  0  0  0  0  0  0  0  0  0  0
   20.6579   20.0805   22.2958 C   0  0  0  0  0  0  0  0  0  0  0  0
   21.7011   20.1331   22.6067 H   0  0  0  0  0  0  0  0  0  0  0  0
   19.9041   18.8470   22.7425 C   0  0  0  0  0  0  0  0  0  0  0  0
   18.8750   19.1149   23.0179 H   0  0  0  0  0  0  0  0  0  0  0  0
   20.3730   18.4369   23.6471 H   0  0  0  0  0  0  0  0  0  0  0  0
   19.8839   17.7702   21.6383 C   0  0  0  0  0  0  0  0  0  0  0  0
   19.4113   18.1776   20.7337 H   0  0  0  0  0  0  0  0  0  0  0  0
   20.9143   17.5024   21.3660 H   0  0  0  0  0  0  0  0  0  0  0  0
   19.1255   16.5058   22.0892 C   0  0  0  0  0  0  0  0  0  0  0  0
   19.5969   16.0595   22.9747 H   0  0  0  0  0  0  0  0  0  0  0  0
   18.0823   16.7412   22.3379 H   0  0  0  0  0  0  0  0  0  0  0  0
   19.1217   15.7519   21.2912 H   0  0  0  0  0  0  0  0  0  0  0  0
  1  2  1  0  0  0  0
  1  3  2  0  0  0  0
  1  4  1  0  0  0  0
  4  5  1  0  0  0  0
  4  6  2  0  0  0  0
  6  7  1  0  0  0  0
  6  8  1  0  0  0  0
  8  9  1  0  0  0  0
  8 10  1  0  0  0  0
  8 11  1  0  0  0  0
 11 12  1  0  0  0  0
 11 13  1  0  0  0  0
 11 14  1  0  0  0  0
 14 15  1  0  0  0  0
 14 16  1  0  0  0  0
 14 17  1  0  0  0  0
M  END
> <VConfSearch Rank>
793

> <Conf_Id>
36

> <Delta U+W>
0.000

> <U+W>
-53.409

> <U>
9.048

> <W>
-62.457

> <W(PB)>
-64.540

> <W(SA)>
2.084

> <Valence>
2.652

> <Coulomb>
5.578

> <VdW>
0.818

> <VdW6>
-4.534

> <VdW12>
5.352

> <Bond>
0.063

> <Angle>
2.579

> <Pdih>
0.010

> <Idih>
0.000

> <Tether>
0.000

$$$$
VeraChem MOL file


 17 16  0  0  0  0  0  0  0  0999 V2000     
   16.8471   19.6145   20.8762 C   0  0  0  0  0  0  0  0  0  0  0  0
   16.6982   18.9651   19.8582 O   0  5  0  0  0  0  0  0  0  0  0  0
   16.0378   20.4369   21.2588 O   0  0  0  0  0  0  0  0  0  0  0  0
   18.0645   19.4098   21.7070 C   0  0  0  0  0  0  0  0  0  0  0  0
   18.1357   20.0216   22.6034 H   0  0  0  0  0  0  0  0  0  0  0  0
   19.0460   18.5307   21.4022 C   0  0  0  0  0  0  0  0  0  0  0  0
   18.9859   17.9144   20.5054 H   0  0  0  0  0  0  0  0  0  0  0  0
   20.2819   18.3300   22.2516 C   0  0  0  0  0  0  0  0  0  0  0  0
   20.6857   17.3228   22.0813 H   0  0  0  0  0  0  0  0  0  0  0  0
   20.0186   18.3850   23.3167 H   0  0  0  0  0  0  0  0  0  0  0  0
   21.3632   19.3811   21.9277 C   0  0  0  0  0  0  0  0  0  0  0  0
   21.6265   19.3226   20.8625 H   0  0  0  0  0  0  0  0  0  0  0  0
   20.9621   20.3893   22.1016 H   0  0  0  0  0  0  0  0  0  0  0  0
   22.6299   19.1777   22.7830 C   0  0  0  0  0  0  0  0  0  0  0  0
   23.0699   18.1877   22.6044 H   0  0  0  0  0  0  0  0  0  0  0  0
   23.3871   19.9340   22.5387 H   0  0  0  0  0  0  0  0  0  0  0  0
   22.3993   19.2624   23.8531 H   0  0  0  0  0  0  0  0  0  0  0  0
  1  2  1  0  0  0  0
  1  3  2  0  0  0  0
  1  4  1  0  0  0  0
  4  5  1  0  0  0  0
  4  6  2  0  0  0  0
  6  7  1  0  0  0  0
  6  8  1  0  0  0  0
  8  9  1  0  0  0  0
  8 10  1  0  0  0  0
  8 11  1  0  0  0  0
 11 12  1  0  0  0  0
 11 13  1  0  0  0  0
 11 14  1  0  0  0  0
 14 15  1  0  0  0  0
 14 16  1  0  0  0  0
 14 17  1  0  0  0  0
M  END
> <VConfSearch Rank>
794

> <Conf_Id>
1

> <Delta U+W>
0.030

> <U+W>
-53.378

> <U>
9.048

> <W>
-62.426

> <W(PB)>
-64.506

> <W(SA)>
2.080

> <Valence>
2.652

> <Coulomb>
5.578

> <VdW>
0.818

> <VdW6>
-4.535

> <VdW12>
5.352

> <Bond>
0.063

> <Angle>
2.579

> <Pdih>
0.010

> <Idih>
0.000

> <Tether>
0.000

$$$$
VeraChem MOL file


 17 16  0  0  0  0  0  0  0  0999 V2000     
   20.3280   16.2144   20.9798 C   0  0  0  0  0  0  0  0  0  0  0  0
   19.1679   15.8479   20.9955 O   0  5  0  0  0  0  0  0  0  0  0  0
   21.1977   15.6259   20.3672 O   0  0  0  0  0  0  0  0  0  0  0  0
   20.7251   17.4312   21.7386 C   0  0  0  0  0  0  0  0  0  0  0  0
   21.7767   17.7030   21.6833 H   0  0  0  0  0  0  0  0  0  0  0  0
   19.8642   18.1829   22.4615 C   0  0  0  0  0  0  0  0  0  0  0  0
   18.8079   17.9216   22.5210 H   0  0  0  0  0  0  0  0  0  0  0  0
   20.2749   19.4225   23.2282 C   0  0  0  0  0  0  0  0  0  0  0  0
   21.2426   19.2487   23.7181 H   0  0  0  0  0  0  0  0  0  0  0  0
   19.5547   19.6184   24.0339 H   0  0  0  0  0  0  0  0  0  0  0  0
   20.3839   20.6664   22.3192 C   0  0  0  0  0  0  0  0  0  0  0  0
   20.7848   21.5052   22.9048 H   0  0  0  0  0  0  0  0  0  0  0  0
   21.1049   20.4739   21.5127 H   0  0  0  0  0  0  0  0  0  0  0  0
   19.0246   21.0777   21.7142 C   0  0  0  0  0  0  0  0  0  0  0  0
   18.2909   21.2876   22.5033 H   0  0  0  0  0  0  0  0  0  0  0  0
   19.1326   21.9826   21.1023 H   0  0  0  0  0  0  0  0  0  0  0  0
   18.6203   20.2840   21.0724 H   0  0  0  0  0  0  0  0  0  0  0  0
  1  2  1  0  0  0  0
  1  3  2  0  0  0  0
  1  4  1  0  0  0  0
  4  5  1  0  0  0  0
  4  6  2  0  0  0  0
  6  7  1  0  0  0  0
  6  8  1  0  0  0  0
  8  9  1  0  0  0  0
  8 10  1  0  0  0  0
  8 11  1  0  0  0  0
 11 12  1  0  0  0  0
 11 13  1  0  0  0  0
 11 14  1  0  0  0  0
 14 15  1  0  0  0  0
 14 16  1  0  0  0  0
 14 17  1  0  0  0  0
M  END
> <VConfSearch Rank>
795

> <Conf_Id>
3

> <Delta U+W>
0.531

> <U+W>
-52.878

> <U>
10.067

> <W>
-62.945

> <W(PB)>
-64.982

> <W(SA)>
2.037

> <Valence>
2.779

> <Coulomb>
6.474

> <VdW>
0.815

> <VdW6>
-5.088

> <VdW12>
5.902

> <Bond>
0.078

> <Angle>
2.651

> <Pdih>
0.050

> <Idih>
0.000

> <Tether>
0.000

$$$$
VeraChem MOL file


 17 16  0  0  0  0  0  0  0  0999 V2000     
   17.8048   20.3246   20.3739 C   0  0  0  0  0  0  0  0  0  0  0  0
   17.6346   20.2614   19.1719 O   0  5  0  0  0  0  0  0  0  0  0  0
   17.3169   21.1993   21.0648 O   0  0  0  0  0  0  0  0  0  0  0  0
   18.6478   19.2734   21.0050 C   0  0  0  0  0  0  0  0  0  0  0  0
   19.0525   18.5223   20.3306 H   0  0  0  0  0  0  0  0  0  0  0  0
   18.9225   19.2215   22.3284 C   0  0  0  0  0  0  0  0  0  0  0  0
   18.5242   19.9721   23.0106 H   0  0  0  0  0  0  0  0  0  0  0  0
   19.7834   18.1516   22.9675 C   0  0  0  0  0  0  0  0  0  0  0  0
   19.8874   17.2877   22.2970 H   0  0  0  0  0  0  0  0  0  0  0  0
   19.2806   17.7788   23.8699 H   0  0  0  0  0  0  0  0  0  0  0  0
   21.1822   18.6788   23.3553 C   0  0  0  0  0  0  0  0  0  0  0  0
   21.0791   19.5447   24.0239 H   0  0  0  0  0  0  0  0  0  0  0  0
   21.7122   17.9035   23.9255 H   0  0  0  0  0  0  0  0  0  0  0  0
   22.0316   19.0685   22.1267 C   0  0  0  0  0  0  0  0  0  0  0  0
   21.5641   19.8881   21.5656 H   0  0  0  0  0  0  0  0  0  0  0  0
   23.0305   19.4008   22.4376 H   0  0  0  0  0  0  0  0  0  0  0  0
   22.1542   18.2148   21.4475 H   0  0  0  0  0  0  0  0  0  0  0  0
  1  2  1  0  0  0  0
  1  3  2  0  0  0  0
  1  4  1  0  0  0  0
  4  5  1  0  0  0  0
  4  6  2  0  0  0  0
  6  7  1  0  0  0  0
  6  8  1  0  0  0  0
  8  9  1  0  0  0  0
  8 10  1  0  0  0  0
  8 11  1  0  0  0  0
 11 12  1  0  0  0  0
 11 13  1  0  0  0  0
 11 14  1  0  0  0  0
 14 15  1  0  0  0  0
 14 16  1  0  0  0  0
 14 17  1  0  0  0  0
M  END
> <VConfSearch Rank>
796

> <Conf_Id>
45

> <Delta U+W>
0.562

> <U+W>
-52.846

> <U>
10.243

> <W>
-63.089

> <W(PB)>
-65.116

> <W(SA)>
2.026

> <Valence>
2.822

> <Coulomb>
6.637

> <VdW>
0.785

> <VdW6>
-5.216

> <VdW12>
6.001

> <Bond>
0.080

> <Angle>
2.678

> <Pdih>
0.064

> <Idih>
0.000

> <Tether>
0.000

$$$$
VeraChem MOL file


 17 16  0  0  0  0  0  0  0  0999 V2000     
   21.8028   20.9639   24.0803 C   0  0  0  0  0  0  0  0  0  0  0  0
   22.5673   20.5977   24.9515 O   0  5  0  0  0  0  0  0  0  0  0  0
   21.3902   22.1057   24.0005 O   0  0  0  0  0  0  0  0  0  0  0  0
   21.3677   19.9536   23.0782 C   0  0  0  0  0  0  0  0  0  0  0  0
   21.7732   18.9526   23.2066 H   0  0  0  0  0  0  0  0  0  0  0  0
   20.5211   20.2202   22.0578 C   0  0  0  0  0  0  0  0  0  0  0  0
   20.1071   21.2191   21.9212 H   0  0  0  0  0  0  0  0  0  0  0  0
   20.0819   19.1863   21.0441 C   0  0  0  0  0  0  0  0  0  0  0  0
   20.9228   18.5255   20.7932 H   0  0  0  0  0  0  0  0  0  0  0  0
   19.7889   19.6870   20.1115 H   0  0  0  0  0  0  0  0  0  0  0  0
   18.9004   18.3475   21.5728 C   0  0  0  0  0  0  0  0  0  0  0  0
   19.1933   17.8426   22.5038 H   0  0  0  0  0  0  0  0  0  0  0  0
   18.0599   19.0105   21.8211 H   0  0  0  0  0  0  0  0  0  0  0  0
   18.4405   17.2975   20.5416 C   0  0  0  0  0  0  0  0  0  0  0  0
   18.1117   17.7784   19.6110 H   0  0  0  0  0  0  0  0  0  0  0  0
   19.2549   16.6021   20.2991 H   0  0  0  0  0  0  0  0  0  0  0  0
   17.6002   16.7110   20.9352 H   0  0  0  0  0  0  0  0  0  0  0  0
  1  2  1  0  0  0  0
  1  3  2  0  0  0  0
  1  4  1  0  0  0  0
  4  5  1  0  0  0  0
  4  6  2  0  0  0  0
  6  7  1  0  0  0  0
  6  8  1  0  0  0  0
  8  9  1  0  0  0  0
  8 10  1  0  0  0  0
  8 11  1  0  0  0  0
 11 12  1  0  0  0  0
 11 13  1  0  0  0  0
 11 14  1  0  0  0  0
 14 15  1  0  0  0  0
 14 16  1  0  0  0  0
 14 17  1  0  0  0  0
M  END
> <VConfSearch Rank>
797

> <Conf_Id>
36

> <Delta U+W>
0.000

> <U+W>
-53.409

> <U>
9.048

> <W>
-62.457

> <W(PB)>
-64.540

> <W(SA)>
2.084

> <Valence>
2.652

> <Coulomb>
5.578

> <VdW>
0.818

> <VdW6>
-4.534

> <VdW12>
5.352

> <Bond>
0.063

> <Angle>
2.579

> <Pdih>
0.010

> <Idih>
0.000

> <Tether>
0.000

$$$$
VeraChem MOL file


 17 16  0  0  0  0  0  0  0  0999 V2000     
   23.2492   20.0406   21.7944 C   0  0  0  0  0  0  0  0  0  0  0  0
   23.9131   19.0223   21.7424 O   0  5  0  0  0  0  0  0  0  0  0  0
   23.7371   21.1376   21.9850 O   0  0  0  0  0  0  0  0  0  0  0  0
   21.7735   19.9656   21.6185 C   0  0  0  0  0  0  0  0  0  0  0  0
   21.2400   20.9116   21.6760 H   0  0  0  0  0  0  0  0  0  0  0  0
   21.0979   18.8143   21.4011 C   0  0  0  0  0  0  0  0  0  0  0  0
   21.6223   17.8606   21.3438 H   0  0  0  0  0  0  0  0  0  0  0  0
   19.5967   18.7466   21.2250 C   0  0  0  0  0  0  0  0  0  0  0  0
   19.3345   17.8516   20.6448 H   0  0  0  0  0  0  0  0  0  0  0  0
   19.2475   19.6101   20.6426 H   0  0  0  0  0  0  0  0  0  0  0  0
   18.8724   18.7096   22.5863 C   0  0  0  0  0  0  0  0  0  0  0  0
   19.2217   17.8439   23.1661 H   0  0  0  0  0  0  0  0  0  0  0  0
   19.1305   19.6064   23.1665 H   0  0  0  0  0  0  0  0  0  0  0  0
   17.3420   18.6311   22.4154 C   0  0  0  0  0  0  0  0  0  0  0  0
   17.0539   17.7258   21.8651 H   0  0  0  0  0  0  0  0  0  0  0  0
   16.8444   18.6057   23.3937 H   0  0  0  0  0  0  0  0  0  0  0  0
   16.9629   19.5022   21.8651 H   0  0  0  0  0  0  0  0  0  0  0  0
  1  2  1  0  0  0  0
  1  3  2  0  0  0  0
  1  4  1  0  0  0  0
  4  5  1  0  0  0  0
  4  6  2  0  0  0  0
  6  7  1  0  0  0  0
  6  8  1  0  0  0  0
  8  9  1  0  0  0  0
  8 10  1  0  0  0  0
  8 11  1  0  0  0  0
 11 12  1  0  0  0  0
 11 13  1  0  0  0  0
 11 14  1  0  0  0  0
 14 15  1  0  0  0  0
 14 16  1  0  0  0  0
 14 17  1  0  0  0  0
M  END
> <VConfSearch Rank>
798

> <Conf_Id>
1

> <Delta U+W>
0.030

> <U+W>
-53.378

> <U>
9.048

> <W>
-62.426

> <W(PB)>
-64.506

> <W(SA)>
2.080

> <Valence>
2.652

> <Coulomb>
5.578

> <VdW>
0.818

> <VdW6>
-4.535

> <VdW12>
5.352

> <Bond>
0.063

> <Angle>
2.579

> <Pdih>
0.010

> <Idih>
0.000

> <Tether>
0.000

$$$$
VeraChem MOL file


 17 16  0  0  0  0  0  0  0  0999 V2000     
   22.4006   19.3820   20.1191 C   0  0  0  0  0  0  0  0  0  0  0  0
   23.2460   19.8158   20.8791 O   0  5  0  0  0  0  0  0  0  0  0  0
   22.6692   18.9240   19.0255 O   0  0  0  0  0  0  0  0  0  0  0  0
   20.9683   19.4053   20.5215 C   0  0  0  0  0  0  0  0  0  0  0  0
   20.2647   19.0036   19.7960 H   0  0  0  0  0  0  0  0  0  0  0  0
   20.5262   19.8838   21.7067 C   0  0  0  0  0  0  0  0  0  0  0  0
   21.2228   20.2854   22.4423 H   0  0  0  0  0  0  0  0  0  0  0  0
   19.0670   19.9007   22.1110 C   0  0  0  0  0  0  0  0  0  0  0  0
   18.4495   20.1897   21.2498 H   0  0  0  0  0  0  0  0  0  0  0  0
   18.9015   20.6692   22.8780 H   0  0  0  0  0  0  0  0  0  0  0  0
   18.5880   18.5311   22.6406 C   0  0  0  0  0  0  0  0  0  0  0  0
   17.5045   18.5734   22.8173 H   0  0  0  0  0  0  0  0  0  0  0  0
   18.7512   17.7602   21.8748 H   0  0  0  0  0  0  0  0  0  0  0  0
   19.2971   18.1222   23.9493 C   0  0  0  0  0  0  0  0  0  0  0  0
   19.1368   18.8731   24.7339 H   0  0  0  0  0  0  0  0  0  0  0  0
   18.9094   17.1624   24.3145 H   0  0  0  0  0  0  0  0  0  0  0  0
   20.3785   18.0118   23.7961 H   0  0  0  0  0  0  0  0  0  0  0  0
  1  2  1  0  0  0  0
  1  3  2  0  0  0  0
  1  4  1  0  0  0  0
  4  5  1  0  0  0  0
  4  6  2  0  0  0  0
  6  7  1  0  0  0  0
  6  8  1  0  0  0  0
  8  9  1  0  0  0  0
  8 10  1  0  0  0  0
  8 11  1  0  0  0  0
 11 12  1  0  0  0  0
 11 13  1  0  0  0  0
 11 14  1  0  0  0  0
 14 15  1  0  0  0  0
 14 16  1  0  0  0  0
 14 17  1  0  0  0  0
M  END
> <VConfSearch Rank>
799

> <Conf_Id>
3

> <Delta U+W>
0.531

> <U+W>
-52.878

> <U>
10.067

> <W>
-62.945

> <W(PB)>
-64.982

> <W(SA)>
2.037

> <Valence>
2.779

> <Coulomb>
6.474

> <VdW>
0.815

> <VdW6>
-5.088

> <VdW12>
5.902

> <Bond>
0.078

> <Angle>
2.651

> <Pdih>
0.050

> <Idih>
0.000

> <Tether>
0.000

$$$$
VeraChem MOL file


 17 16  0  0  0  0  0  0  0  0999 V2000     
   20.5155   17.5912   24.6365 C   0  0  0  0  0  0  0  0  0  0  0  0
   20.4867   16.3950   24.8514 O   0  5  0  0  0  0  0  0  0  0  0  0
   20.4223   18.4232   25.5194 O   0  0  0  0  0  0  0  0  0  0  0  0
   20.6758   18.0322   23.2244 C   0  0  0  0  0  0  0  0  0  0  0  0
   20.7533   17.2377   22.4858 H   0  0  0  0  0  0  0  0  0  0  0  0
   20.7217   19.3283   22.8403 C   0  0  0  0  0  0  0  0  0  0  0  0
   20.6411   20.1305   23.5735 H   0  0  0  0  0  0  0  0  0  0  0  0
   20.8822   19.7741   21.4016 C   0  0  0  0  0  0  0  0  0  0  0  0
   21.2568   18.9488   20.7809 H   0  0  0  0  0  0  0  0  0  0  0  0
   21.6450   20.5627   21.3538 H   0  0  0  0  0  0  0  0  0  0  0  0
   19.5644   20.3152   20.8052 C   0  0  0  0  0  0  0  0  0  0  0  0
   19.1875   21.1391   21.4271 H   0  0  0  0  0  0  0  0  0  0  0  0
   19.7678   20.7393   19.8123 H   0  0  0  0  0  0  0  0  0  0  0  0
   18.4800   19.2246   20.6736 C   0  0  0  0  0  0  0  0  0  0  0  0
   18.2029   18.8208   21.6561 H   0  0  0  0  0  0  0  0  0  0  0  0
   17.5733   19.6354   20.2111 H   0  0  0  0  0  0  0  0  0  0  0  0
   18.8328   18.3936   20.0489 H   0  0  0  0  0  0  0  0  0  0  0  0
  1  2  1  0  0  0  0
  1  3  2  0  0  0  0
  1  4  1  0  0  0  0
  4  5  1  0  0  0  0
  4  6  2  0  0  0  0
  6  7  1  0  0  0  0
  6  8  1  0  0  0  0
  8  9  1  0  0  0  0
  8 10  1  0  0  0  0
  8 11  1  0  0  0  0
 11 12  1  0  0  0  0
 11 13  1  0  0  0  0
 11 14  1  0  0  0  0
 14 15  1  0  0  0  0
 14 16  1  0  0  0  0
 14 17  1  0  0  0  0
M  END
> <VConfSearch Rank>
800

> <Conf_Id>
45

> <Delta U+W>
0.562

> <U+W>
-52.846

> <U>
10.243

> <W>
-63.089

> <W(PB)>
-65.116

> <W(SA)>
2.026

> <Valence>
2.822

> <Coulomb>
6.637

> <VdW>
0.785

> <VdW6>
-5.216

> <VdW12>
6.001

> <Bond>
0.080

> <Angle>
2.678

> <Pdih>
0.064

> <Idih>
0.000

> <Tether>
0.000

$$$$
VeraChem MOL file


 17 16  0  0  0  0  0  0  0  0999 V2000     
   20.8203   17.5674   19.0342 C   0  0  0  0  0  0  0  0  0  0  0  0
   21.8999   17.4992   18.4797 O   0  5  0  0  0  0  0  0  0  0  0  0
   19.7779   17.2523   18.4916 O   0  0  0  0  0  0  0  0  0  0  0  0
   20.7984   18.0594   20.4384 C   0  0  0  0  0  0  0  0  0  0  0  0
   21.7639   18.3239   20.8636 H   0  0  0  0  0  0  0  0  0  0  0  0
   19.6713   18.1874   21.1747 C   0  0  0  0  0  0  0  0  0  0  0  0
   18.6985   17.9275   20.7577 H   0  0  0  0  0  0  0  0  0  0  0  0
   19.6575   18.6906   22.6015 C   0  0  0  0  0  0  0  0  0  0  0  0
   20.5294   18.3021   23.1452 H   0  0  0  0  0  0  0  0  0  0  0  0
   18.7690   18.3046   23.1191 H   0  0  0  0  0  0  0  0  0  0  0  0
   19.6561   20.2322   22.6536 C   0  0  0  0  0  0  0  0  0  0  0  0
   20.5467   20.6199   22.1397 H   0  0  0  0  0  0  0  0  0  0  0  0
   18.7821   20.6183   22.1109 H   0  0  0  0  0  0  0  0  0  0  0  0
   19.6326   20.7532   24.1046 C   0  0  0  0  0  0  0  0  0  0  0  0
   18.7347   20.4058   24.6325 H   0  0  0  0  0  0  0  0  0  0  0  0
   20.5133   20.4063   24.6609 H   0  0  0  0  0  0  0  0  0  0  0  0
   19.6320   21.8509   24.1214 H   0  0  0  0  0  0  0  0  0  0  0  0
  1  2  1  0  0  0  0
  1  3  2  0  0  0  0
  1  4  1  0  0  0  0
  4  5  1  0  0  0  0
  4  6  2  0  0  0  0
  6  7  1  0  0  0  0
  6  8  1  0  0  0  0
  8  9  1  0  0  0  0
  8 10  1  0  0  0  0
  8 11  1  0  0  0  0
 11 12  1  0  0  0  0
 11 13  1  0  0  0  0
 11 14  1  0  0  0  0
 14 15  1  0  0  0  0
 14 16  1  0  0  0  0
 14 17  1  0  0  0  0
M  END
> <VConfSearch Rank>
801

> <Conf_Id>
36

> <Delta U+W>
0.000

> <U+W>
-53.409

> <U>
9.048

> <W>
-62.457

> <W(PB)>
-64.540

> <W(SA)>
2.084

> <Valence>
2.652

> <Coulomb>
5.578

> <VdW>
0.818

> <VdW6>
-4.534

> <VdW12>
5.352

> <Bond>
0.063

> <Angle>
2.579

> <Pdih>
0.010

> <Idih>
0.000

> <Tether>
0.000

$$$$
VeraChem MOL file


 17 16  0  0  0  0  0  0  0  0999 V2000     
   17.5115   21.3448   21.7002 C   0  0  0  0  0  0  0  0  0  0  0  0
   17.5960   21.8628   20.6025 O   0  5  0  0  0  0  0  0  0  0  0  0
   16.7789   21.7658   22.5741 O   0  0  0  0  0  0  0  0  0  0  0  0
   18.3300   20.1412   22.0097 C   0  0  0  0  0  0  0  0  0  0  0  0
   18.2071   19.7277   23.0081 H   0  0  0  0  0  0  0  0  0  0  0  0
   19.1867   19.5669   21.1350 C   0  0  0  0  0  0  0  0  0  0  0  0
   19.3192   19.9743   20.1329 H   0  0  0  0  0  0  0  0  0  0  0  0
   20.0168   18.3440   21.4585 C   0  0  0  0  0  0  0  0  0  0  0  0
   20.2709   17.8157   20.5296 H   0  0  0  0  0  0  0  0  0  0  0  0
   19.4302   17.6421   22.0668 H   0  0  0  0  0  0  0  0  0  0  0  0
   21.3110   18.7250   22.2061 C   0  0  0  0  0  0  0  0  0  0  0  0
   21.8970   19.4254   21.5948 H   0  0  0  0  0  0  0  0  0  0  0  0
   21.0585   19.2501   23.1377 H   0  0  0  0  0  0  0  0  0  0  0  0
   22.1674   17.4847   22.5313 C   0  0  0  0  0  0  0  0  0  0  0  0
   22.4607   16.9580   21.6137 H   0  0  0  0  0  0  0  0  0  0  0  0
   23.0830   17.7754   23.0626 H   0  0  0  0  0  0  0  0  0  0  0  0
   21.6146   16.7818   23.1684 H   0  0  0  0  0  0  0  0  0  0  0  0
  1  2  1  0  0  0  0
  1  3  2  0  0  0  0
  1  4  1  0  0  0  0
  4  5  1  0  0  0  0
  4  6  2  0  0  0  0
  6  7  1  0  0  0  0
  6  8  1  0  0  0  0
  8  9  1  0  0  0  0
  8 10  1  0  0  0  0
  8 11  1  0  0  0  0
 11 12  1  0  0  0  0
 11 13  1  0  0  0  0
 11 14  1  0  0  0  0
 14 15  1  0  0  0  0
 14 16  1  0  0  0  0
 14 17  1  0  0  0  0
M  END
> <VConfSearch Rank>
802

> <Conf_Id>
1

> <Delta U+W>
0.030

> <U+W>
-53.378

> <U>
9.048

> <W>
-62.426

> <W(PB)>
-64.506

> <W(SA)>
2.080

> <Valence>
2.652

> <Coulomb>
5.578

> <VdW>
0.818

> <VdW6>
-4.535

> <VdW12>
5.352

> <Bond>
0.063

> <Angle>
2.579

> <Pdih>
0.010

> <Idih>
0.000

> <Tether>
0.000

$$$$
VeraChem MOL file


 17 16  0  0  0  0  0  0  0  0999 V2000     
   19.1822   16.2222   22.8198 C   0  0  0  0  0  0  0  0  0  0  0  0
   19.3313   15.6568   21.7528 O   0  5  0  0  0  0  0  0  0  0  0  0
   19.0661   15.6252   23.8724 O   0  0  0  0  0  0  0  0  0  0  0  0
   19.1332   17.7087   22.8637 C   0  0  0  0  0  0  0  0  0  0  0  0
   18.9970   18.1503   23.8482 H   0  0  0  0  0  0  0  0  0  0  0  0
   19.2500   18.4992   21.7726 C   0  0  0  0  0  0  0  0  0  0  0  0
   19.3901   18.0674   20.7819 H   0  0  0  0  0  0  0  0  0  0  0  0
   19.2031   20.0118   21.8256 C   0  0  0  0  0  0  0  0  0  0  0  0
   18.4257   20.3317   22.5327 H   0  0  0  0  0  0  0  0  0  0  0  0
   18.9081   20.4103   20.8455 H   0  0  0  0  0  0  0  0  0  0  0  0
   20.5554   20.6273   22.2474 C   0  0  0  0  0  0  0  0  0  0  0  0
   20.4334   21.7122   22.3708 H   0  0  0  0  0  0  0  0  0  0  0  0
   20.8526   20.2314   23.2284 H   0  0  0  0  0  0  0  0  0  0  0  0
   21.6740   20.3593   21.2180 C   0  0  0  0  0  0  0  0  0  0  0  0
   21.4037   20.7582   20.2316 H   0  0  0  0  0  0  0  0  0  0  0  0
   22.6104   20.8382   21.5323 H   0  0  0  0  0  0  0  0  0  0  0  0
   21.8654   19.2835   21.1121 H   0  0  0  0  0  0  0  0  0  0  0  0
  1  2  1  0  0  0  0
  1  3  2  0  0  0  0
  1  4  1  0  0  0  0
  4  5  1  0  0  0  0
  4  6  2  0  0  0  0
  6  7  1  0  0  0  0
  6  8  1  0  0  0  0
  8  9  1  0  0  0  0
  8 10  1  0  0  0  0
  8 11  1  0  0  0  0
 11 12  1  0  0  0  0
 11 13  1  0  0  0  0
 11 14  1  0  0  0  0
 14 15  1  0  0  0  0
 14 16  1  0  0  0  0
 14 17  1  0  0  0  0
M  END
> <VConfSearch Rank>
803

> <Conf_Id>
3

> <Delta U+W>
0.531

> <U+W>
-52.878

> <U>
10.067

> <W>
-62.945

> <W(PB)>
-64.982

> <W(SA)>
2.037

> <Valence>
2.779

> <Coulomb>
6.474

> <VdW>
0.815

> <VdW6>
-5.088

> <VdW12>
5.902

> <Bond>
0.078

> <Angle>
2.651

> <Pdih>
0.050

> <Idih>
0.000

> <Tether>
0.000

$$$$
VeraChem MOL file


 17 16  0  0  0  0  0  0  0  0999 V2000     
   21.2698   21.8243   21.9269 C   0  0  0  0  0  0  0  0  0  0  0  0
   21.3922   22.6720   22.7896 O   0  5  0  0  0  0  0  0  0  0  0  0
   21.3392   22.0766   20.7387 O   0  0  0  0  0  0  0  0  0  0  0  0
   21.0285   20.4240   22.3685 C   0  0  0  0  0  0  0  0  0  0  0  0
   20.9778   20.2682   23.4436 H   0  0  0  0  0  0  0  0  0  0  0  0
   20.8713   19.3827   21.5197 C   0  0  0  0  0  0  0  0  0  0  0  0
   20.9170   19.5305   20.4410 H   0  0  0  0  0  0  0  0  0  0  0  0
   20.6231   17.9586   21.9722 C   0  0  0  0  0  0  0  0  0  0  0  0
   20.8912   17.8372   23.0305 H   0  0  0  0  0  0  0  0  0  0  0  0
   21.2830   17.2839   21.4107 H   0  0  0  0  0  0  0  0  0  0  0  0
   19.1579   17.5215   21.7547 C   0  0  0  0  0  0  0  0  0  0  0  0
   18.8879   17.6452   20.6968 H   0  0  0  0  0  0  0  0  0  0  0  0
   19.0665   16.4497   21.9786 H   0  0  0  0  0  0  0  0  0  0  0  0
   18.1663   18.3064   22.6399 C   0  0  0  0  0  0  0  0  0  0  0  0
   18.1824   19.3773   22.3992 H   0  0  0  0  0  0  0  0  0  0  0  0
   17.1418   17.9430   22.4878 H   0  0  0  0  0  0  0  0  0  0  0  0
   18.4129   18.1906   23.7033 H   0  0  0  0  0  0  0  0  0  0  0  0
  1  2  1  0  0  0  0
  1  3  2  0  0  0  0
  1  4  1  0  0  0  0
  4  5  1  0  0  0  0
  4  6  2  0  0  0  0
  6  7  1  0  0  0  0
  6  8  1  0  0  0  0
  8  9  1  0  0  0  0
  8 10  1  0  0  0  0
  8 11  1  0  0  0  0
 11 12  1  0  0  0  0
 11 13  1  0  0  0  0
 11 14  1  0  0  0  0
 14 15  1  0  0  0  0
 14 16  1  0  0  0  0
 14 17  1  0  0  0  0
M  END
> <VConfSearch Rank>
804

> <Conf_Id>
45

> <Delta U+W>
0.562

> <U+W>
-52.846

> <U>
10.243

> <W>
-63.089

> <W(PB)>
-65.116

> <W(SA)>
2.026

> <Valence>
2.822

> <Coulomb>
6.637

> <VdW>
0.785

> <VdW6>
-5.216

> <VdW12>
6.001

> <Bond>
0.080

> <Angle>
2.678

> <Pdih>
0.064

> <Idih>
0.000

> <Tether>
0.000

$$$$
VeraChem MOL file


 17 16  0  0  0  0  0  0  0  0999 V2000     
   17.8228   19.5873   19.3744 C   0  0  0  0  0  0  0  0  0  0  0  0
   16.6480   19.8974   19.4138 O   0  5  0  0  0  0  0  0  0  0  0  0
   18.3616   19.1666   18.3679 O   0  0  0  0  0  0  0  0  0  0  0  0
   18.6161   19.7389   20.6242 C   0  0  0  0  0  0  0  0  0  0  0  0
   18.0744   20.1198   21.4869 H   0  0  0  0  0  0  0  0  0  0  0  0
   19.9294   19.4319   20.7252 C   0  0  0  0  0  0  0  0  0  0  0  0
   20.4812   19.0474   19.8676 H   0  0  0  0  0  0  0  0  0  0  0  0
   20.7284   19.5870   22.0006 C   0  0  0  0  0  0  0  0  0  0  0  0
   20.4198   20.4996   22.5285 H   0  0  0  0  0  0  0  0  0  0  0  0
   21.7917   19.7122   21.7556 H   0  0  0  0  0  0  0  0  0  0  0  0
   20.5524   18.3656   22.9260 C   0  0  0  0  0  0  0  0  0  0  0  0
   19.4894   18.2414   23.1755 H   0  0  0  0  0  0  0  0  0  0  0  0
   20.8636   17.4544   22.3965 H   0  0  0  0  0  0  0  0  0  0  0  0
   21.3712   18.5117   24.2243 C   0  0  0  0  0  0  0  0  0  0  0  0
   22.4428   18.6058   24.0046 H   0  0  0  0  0  0  0  0  0  0  0  0
   21.0576   19.3997   24.7887 H   0  0  0  0  0  0  0  0  0  0  0  0
   21.2334   17.6342   24.8693 H   0  0  0  0  0  0  0  0  0  0  0  0
  1  2  1  0  0  0  0
  1  3  2  0  0  0  0
  1  4  1  0  0  0  0
  4  5  1  0  0  0  0
  4  6  2  0  0  0  0
  6  7  1  0  0  0  0
  6  8  1  0  0  0  0
  8  9  1  0  0  0  0
  8 10  1  0  0  0  0
  8 11  1  0  0  0  0
 11 12  1  0  0  0  0
 11 13  1  0  0  0  0
 11 14  1  0  0  0  0
 14 15  1  0  0  0  0
 14 16  1  0  0  0  0
 14 17  1  0  0  0  0
M  END
> <VConfSearch Rank>
805

> <Conf_Id>
36

> <Delta U+W>
0.000

> <U+W>
-53.409

> <U>
9.048

> <W>
-62.457

> <W(PB)>
-64.540

> <W(SA)>
2.084

> <Valence>
2.652

> <Coulomb>
5.578

> <VdW>
0.818

> <VdW6>
-4.534

> <VdW12>
5.352

> <Bond>
0.063

> <Angle>
2.579

> <Pdih>
0.010

> <Idih>
0.000

> <Tether>
0.000

$$$$
VeraChem MOL file


 17 16  0  0  0  0  0  0  0  0999 V2000     
   16.8952   18.0813   22.7049 C   0  0  0  0  0  0  0  0  0  0  0  0
   16.6936   18.4262   23.8542 O   0  5  0  0  0  0  0  0  0  0  0  0
   16.1537   17.3306   22.1013 O   0  0  0  0  0  0  0  0  0  0  0  0
   18.0948   18.5884   21.9852 C   0  0  0  0  0  0  0  0  0  0  0  0
   18.2158   18.2418   20.9614 H   0  0  0  0  0  0  0  0  0  0  0  0
   19.0038   19.4269   22.5326 C   0  0  0  0  0  0  0  0  0  0  0  0
   18.8935   19.7786   23.5583 H   0  0  0  0  0  0  0  0  0  0  0  0
   20.2221   19.9365   21.7943 C   0  0  0  0  0  0  0  0  0  0  0  0
   20.5454   20.8904   22.2325 H   0  0  0  0  0  0  0  0  0  0  0  0
   19.9664   20.1447   20.7464 H   0  0  0  0  0  0  0  0  0  0  0  0
   21.3816   18.9212   21.8553 C   0  0  0  0  0  0  0  0  0  0  0  0
   21.6370   18.7162   22.9042 H   0  0  0  0  0  0  0  0  0  0  0  0
   21.0611   17.9675   21.4135 H   0  0  0  0  0  0  0  0  0  0  0  0
   22.6305   19.4373   21.1127 C   0  0  0  0  0  0  0  0  0  0  0  0
   22.9913   20.3751   21.5552 H   0  0  0  0  0  0  0  0  0  0  0  0
   23.4440   18.7022   21.1670 H   0  0  0  0  0  0  0  0  0  0  0  0
   22.4097   19.6207   20.0530 H   0  0  0  0  0  0  0  0  0  0  0  0
  1  2  1  0  0  0  0
  1  3  2  0  0  0  0
  1  4  1  0  0  0  0
  4  5  1  0  0  0  0
  4  6  2  0  0  0  0
  6  7  1  0  0  0  0
  6  8  1  0  0  0  0
  8  9  1  0  0  0  0
  8 10  1  0  0  0  0
  8 11  1  0  0  0  0
 11 12  1  0  0  0  0
 11 13  1  0  0  0  0
 11 14  1  0  0  0  0
 14 15  1  0  0  0  0
 14 16  1  0  0  0  0
 14 17  1  0  0  0  0
M  END
> <VConfSearch Rank>
806

> <Conf_Id>
1

> <Delta U+W>
0.030

> <U+W>
-53.378

> <U>
9.048

> <W>
-62.426

> <W(PB)>
-64.506

> <W(SA)>
2.080

> <Valence>
2.652

> <Coulomb>
5.578

> <VdW>
0.818

> <VdW6>
-4.535

> <VdW12>
5.352

> <Bond>
0.063

> <Angle>
2.579

> <Pdih>
0.010

> <Idih>
0.000

> <Tether>
0.000

$$$$
VeraChem MOL file


 17 16  0  0  0  0  0  0  0  0999 V2000     
   22.9265   18.1086   22.3209 C   0  0  0  0  0  0  0  0  0  0  0  0
   22.8903   17.1170   21.6167 O   0  5  0  0  0  0  0  0  0  0  0  0
   23.9667   18.6256   22.6794 O   0  0  0  0  0  0  0  0  0  0  0  0
   21.6555   18.7320   22.7791 C   0  0  0  0  0  0  0  0  0  0  0  0
   21.7587   19.6145   23.4062 H   0  0  0  0  0  0  0  0  0  0  0  0
   20.4279   18.2651   22.4566 C   0  0  0  0  0  0  0  0  0  0  0  0
   20.3130   17.3836   21.8262 H   0  0  0  0  0  0  0  0  0  0  0  0
   19.1385   18.9072   22.9235 C   0  0  0  0  0  0  0  0  0  0  0  0
   19.2410   19.2192   23.9717 H   0  0  0  0  0  0  0  0  0  0  0  0
   18.3253   18.1694   22.9018 H   0  0  0  0  0  0  0  0  0  0  0  0
   18.7479   20.1315   22.0668 C   0  0  0  0  0  0  0  0  0  0  0  0
   17.8688   20.6165   22.5131 H   0  0  0  0  0  0  0  0  0  0  0  0
   19.5593   20.8722   22.0875 H   0  0  0  0  0  0  0  0  0  0  0  0
   18.4272   19.7526   20.6052 C   0  0  0  0  0  0  0  0  0  0  0  0
   17.6094   19.0217   20.5594 H   0  0  0  0  0  0  0  0  0  0  0  0
   18.1217   20.6392   20.0348 H   0  0  0  0  0  0  0  0  0  0  0  0
   19.3038   19.3179   20.1072 H   0  0  0  0  0  0  0  0  0  0  0  0
  1  2  1  0  0  0  0
  1  3  2  0  0  0  0
  1  4  1  0  0  0  0
  4  5  1  0  0  0  0
  4  6  2  0  0  0  0
  6  7  1  0  0  0  0
  6  8  1  0  0  0  0
  8  9  1  0  0  0  0
  8 10  1  0  0  0  0
  8 11  1  0  0  0  0
 11 12  1  0  0  0  0
 11 13  1  0  0  0  0
 11 14  1  0  0  0  0
 14 15  1  0  0  0  0
 14 16  1  0  0  0  0
 14 17  1  0  0  0  0
M  END
> <VConfSearch Rank>
807

> <Conf_Id>
3

> <Delta U+W>
0.531

> <U+W>
-52.878

> <U>
10.067

> <W>
-62.945

> <W(PB)>
-64.982

> <W(SA)>
2.037

> <Valence>
2.779

> <Coulomb>
6.474

> <VdW>
0.815

> <VdW6>
-5.088

> <VdW12>
5.902

> <Bond>
0.078

> <Angle>
2.651

> <Pdih>
0.050

> <Idih>
0.000

> <Tether>
0.000

$$$$
VeraChem MOL file


 17 16  0  0  0  0  0  0  0  0999 V2000     
   21.7656   16.8070   22.8913 C   0  0  0  0  0  0  0  0  0  0  0  0
   22.9789   16.7320   22.8873 O   0  5  0  0  0  0  0  0  0  0  0  0
   21.0434   15.8278   22.8935 O   0  0  0  0  0  0  0  0  0  0  0  0
   21.1610   18.1666   22.8970 C   0  0  0  0  0  0  0  0  0  0  0  0
   21.8628   18.9974   22.8948 H   0  0  0  0  0  0  0  0  0  0  0  0
   19.8284   18.3988   22.8994 C   0  0  0  0  0  0  0  0  0  0  0  0
   19.1182   17.5723   22.8979 H   0  0  0  0  0  0  0  0  0  0  0  0
   19.2159   19.7841   22.9024 C   0  0  0  0  0  0  0  0  0  0  0  0
   19.9580   20.5341   23.2084 H   0  0  0  0  0  0  0  0  0  0  0  0
   18.4167   19.8210   23.6546 H   0  0  0  0  0  0  0  0  0  0  0  0
   18.6273   20.1677   21.5271 C   0  0  0  0  0  0  0  0  0  0  0  0
   17.8868   19.4166   21.2190 H   0  0  0  0  0  0  0  0  0  0  0  0
   18.0877   21.1202   21.6212 H   0  0  0  0  0  0  0  0  0  0  0  0
   19.7102   20.3089   20.4361 C   0  0  0  0  0  0  0  0  0  0  0  0
   20.2294   19.3565   20.2677 H   0  0  0  0  0  0  0  0  0  0  0  0
   19.2608   20.6198   19.4841 H   0  0  0  0  0  0  0  0  0  0  0  0
   20.4577   21.0610   20.7199 H   0  0  0  0  0  0  0  0  0  0  0  0
  1  2  1  0  0  0  0
  1  3  2  0  0  0  0
  1  4  1  0  0  0  0
  4  5  1  0  0  0  0
  4  6  2  0  0  0  0
  6  7  1  0  0  0  0
  6  8  1  0  0  0  0
  8  9  1  0  0  0  0
  8 10  1  0  0  0  0
  8 11  1  0  0  0  0
 11 12  1  0  0  0  0
 11 13  1  0  0  0  0
 11 14  1  0  0  0  0
 14 15  1  0  0  0  0
 14 16  1  0  0  0  0
 14 17  1  0  0  0  0
M  END
> <VConfSearch Rank>
808

> <Conf_Id>
45

> <Delta U+W>
0.562

> <U+W>
-52.846

> <U>
10.243

> <W>
-63.089

> <W(PB)>
-65.116

> <W(SA)>
2.026

> <Valence>
2.822

> <Coulomb>
6.637

> <VdW>
0.785

> <VdW6>
-5.216

> <VdW12>
6.001

> <Bond>
0.080

> <Angle>
2.678

> <Pdih>
0.064

> <Idih>
0.000

> <Tether>
0.000

$$$$
VeraChem MOL file


 17 16  0  0  0  0  0  0  0  0999 V2000     
   23.0343   17.6796   21.6664 C   0  0  0  0  0  0  0  0  0  0  0  0
   23.4136   16.8071   20.9096 O   0  5  0  0  0  0  0  0  0  0  0  0
   23.6697   18.0288   22.6435 O   0  0  0  0  0  0  0  0  0  0  0  0
   21.7336   18.3354   21.3627 C   0  0  0  0  0  0  0  0  0  0  0  0
   21.2169   17.9766   20.4754 H   0  0  0  0  0  0  0  0  0  0  0  0
   21.1904   19.3176   22.1172 C   0  0  0  0  0  0  0  0  0  0  0  0
   21.6985   19.6830   23.0095 H   0  0  0  0  0  0  0  0  0  0  0  0
   19.8659   19.9779   21.8025 C   0  0  0  0  0  0  0  0  0  0  0  0
   19.7606   20.1098   20.7170 H   0  0  0  0  0  0  0  0  0  0  0  0
   19.8425   20.9837   22.2433 H   0  0  0  0  0  0  0  0  0  0  0  0
   18.6826   19.1495   22.3435 C   0  0  0  0  0  0  0  0  0  0  0  0
   18.7023   18.1442   21.9003 H   0  0  0  0  0  0  0  0  0  0  0  0
   18.7892   19.0207   23.4296 H   0  0  0  0  0  0  0  0  0  0  0  0
   17.3291   19.8207   22.0351 C   0  0  0  0  0  0  0  0  0  0  0  0
   17.2704   20.8162   22.4943 H   0  0  0  0  0  0  0  0  0  0  0  0
   17.1840   19.9331   20.9526 H   0  0  0  0  0  0  0  0  0  0  0  0
   16.5000   19.2173   22.4272 H   0  0  0  0  0  0  0  0  0  0  0  0
  1  2  1  0  0  0  0
  1  3  2  0  0  0  0
  1  4  1  0  0  0  0
  4  5  1  0  0  0  0
  4  6  2  0  0  0  0
  6  7  1  0  0  0  0
  6  8  1  0  0  0  0
  8  9  1  0  0  0  0
  8 10  1  0  0  0  0
  8 11  1  0  0  0  0
 11 12  1  0  0  0  0
 11 13  1  0  0  0  0
 11 14  1  0  0  0  0
 14 15  1  0  0  0  0
 14 16  1  0  0  0  0
 14 17  1  0  0  0  0
M  END
> <VConfSearch Rank>
809

> <Conf_Id>
36

> <Delta U+W>
0.000

> <U+W>
-53.409

> <U>
9.048

> <W>
-62.457

> <W(PB)>
-64.540

> <W(SA)>
2.084

> <Valence>
2.652

> <Coulomb>
5.578

> <VdW>
0.818

> <VdW6>
-4.534

> <VdW12>
5.352

> <Bond>
0.063

> <Angle>
2.579

> <Pdih>
0.010

> <Idih>
0.000

> <Tether>
0.000

$$$$
VeraChem MOL file


 17 16  0  0  0  0  0  0  0  0999 V2000     
   18.0366   21.6538   22.8680 C   0  0  0  0  0  0  0  0  0  0  0  0
   18.6844   22.3286   23.6460 O   0  5  0  0  0  0  0  0  0  0  0  0
   16.8445   21.8127   22.6906 O   0  0  0  0  0  0  0  0  0  0  0  0
   18.7111   20.5818   22.0868 C   0  0  0  0  0  0  0  0  0  0  0  0
   18.0750   20.0163   21.4097 H   0  0  0  0  0  0  0  0  0  0  0  0
   20.0290   20.2941   22.1838 C   0  0  0  0  0  0  0  0  0  0  0  0
   20.6749   20.8530   22.8607 H   0  0  0  0  0  0  0  0  0  0  0  0
   20.7068   19.2009   21.3871 C   0  0  0  0  0  0  0  0  0  0  0  0
   21.7761   19.4296   21.2846 H   0  0  0  0  0  0  0  0  0  0  0  0
   20.2953   19.1679   20.3691 H   0  0  0  0  0  0  0  0  0  0  0  0
   20.5357   17.8248   22.0625 C   0  0  0  0  0  0  0  0  0  0  0  0
   20.9499   17.8597   23.0798 H   0  0  0  0  0  0  0  0  0  0  0  0
   19.4662   17.5926   22.1622 H   0  0  0  0  0  0  0  0  0  0  0  0
   21.2317   16.7064   21.2613 C   0  0  0  0  0  0  0  0  0  0  0  0
   22.3093   16.8979   21.1737 H   0  0  0  0  0  0  0  0  0  0  0  0
   21.0993   15.7358   21.7568 H   0  0  0  0  0  0  0  0  0  0  0  0
   20.8137   16.6298   20.2490 H   0  0  0  0  0  0  0  0  0  0  0  0
  1  2  1  0  0  0  0
  1  3  2  0  0  0  0
  1  4  1  0  0  0  0
  4  5  1  0  0  0  0
  4  6  2  0  0  0  0
  6  7  1  0  0  0  0
  6  8  1  0  0  0  0
  8  9  1  0  0  0  0
  8 10  1  0  0  0  0
  8 11  1  0  0  0  0
 11 12  1  0  0  0  0
 11 13  1  0  0  0  0
 11 14  1  0  0  0  0
 14 15  1  0  0  0  0
 14 16  1  0  0  0  0
 14 17  1  0  0  0  0
M  END
> <VConfSearch Rank>
810

> <Conf_Id>
1

> <Delta U+W>
0.030

> <U+W>
-53.378

> <U>
9.048

> <W>
-62.426

> <W(PB)>
-64.506

> <W(SA)>
2.080

> <Valence>
2.652

> <Coulomb>
5.578

> <VdW>
0.818

> <VdW6>
-4.535

> <VdW12>
5.352

> <Bond>
0.063

> <Angle>
2.579

> <Pdih>
0.010

> <Idih>
0.000

> <Tether>
0.000

$$$$
VeraChem MOL file


 17 16  0  0  0  0  0  0  0  0999 V2000     
   18.1993   16.6000   22.1422 C   0  0  0  0  0  0  0  0  0  0  0  0
   17.1148   17.1134   21.9407 O   0  5  0  0  0  0  0  0  0  0  0  0
   18.3917   15.4038   22.0434 O   0  0  0  0  0  0  0  0  0  0  0  0
   19.3554   17.4522   22.5312 C   0  0  0  0  0  0  0  0  0  0  0  0
   20.2951   16.9304   22.6973 H   0  0  0  0  0  0  0  0  0  0  0  0
   19.2866   18.7949   22.6770 C   0  0  0  0  0  0  0  0  0  0  0  0
   18.3511   19.3282   22.5098 H   0  0  0  0  0  0  0  0  0  0  0  0
   20.4687   19.6562   23.0695 C   0  0  0  0  0  0  0  0  0  0  0  0
   21.0524   19.1476   23.8487 H   0  0  0  0  0  0  0  0  0  0  0  0
   20.1141   20.5949   23.5161 H   0  0  0  0  0  0  0  0  0  0  0  0
   21.3904   19.9707   21.8707 C   0  0  0  0  0  0  0  0  0  0  0  0
   22.2799   20.5049   22.2320 H   0  0  0  0  0  0  0  0  0  0  0  0
   21.7478   19.0334   21.4223 H   0  0  0  0  0  0  0  0  0  0  0  0
   20.6897   20.8276   20.7947 C   0  0  0  0  0  0  0  0  0  0  0  0
   20.3348   21.7763   21.2180 H   0  0  0  0  0  0  0  0  0  0  0  0
   21.3821   21.0600   19.9753 H   0  0  0  0  0  0  0  0  0  0  0  0
   19.8277   20.2992   20.3670 H   0  0  0  0  0  0  0  0  0  0  0  0
  1  2  1  0  0  0  0
  1  3  2  0  0  0  0
  1  4  1  0  0  0  0
  4  5  1  0  0  0  0
  4  6  2  0  0  0  0
  6  7  1  0  0  0  0
  6  8  1  0  0  0  0
  8  9  1  0  0  0  0
  8 10  1  0  0  0  0
  8 11  1  0  0  0  0
 11 12  1  0  0  0  0
 11 13  1  0  0  0  0
 11 14  1  0  0  0  0
 14 15  1  0  0  0  0
 14 16  1  0  0  0  0
 14 17  1  0  0  0  0
M  END
> <VConfSearch Rank>
811

> <Conf_Id>
3

> <Delta U+W>
0.531

> <U+W>
-52.878

> <U>
10.067

> <W>
-62.945

> <W(PB)>
-64.982

> <W(SA)>
2.037

> <Valence>
2.779

> <Coulomb>
6.474

> <VdW>
0.815

> <VdW6>
-5.088

> <VdW12>
5.902

> <Bond>
0.078

> <Angle>
2.651

> <Pdih>
0.050

> <Idih>
0.000

> <Tether>
0.000

$$$$
VeraChem MOL file


 17 16  0  0  0  0  0  0  0  0999 V2000     
   20.7366   21.2227   24.0850 C   0  0  0  0  0  0  0  0  0  0  0  0
   20.3671   21.3697   25.2337 O   0  5  0  0  0  0  0  0  0  0  0  0
   21.2164   22.1252   23.4249 O   0  0  0  0  0  0  0  0  0  0  0  0
   20.5881   19.8700   23.4830 C   0  0  0  0  0  0  0  0  0  0  0  0
   20.1524   19.1098   24.1273 H   0  0  0  0  0  0  0  0  0  0  0  0
   20.9540   19.5641   22.2173 C   0  0  0  0  0  0  0  0  0  0  0  0
   21.3879   20.3206   21.5638 H   0  0  0  0  0  0  0  0  0  0  0  0
   20.7990   18.1868   21.6064 C   0  0  0  0  0  0  0  0  0  0  0  0
   20.6527   17.4308   22.3899 H   0  0  0  0  0  0  0  0  0  0  0  0
   21.7305   17.9163   21.0914 H   0  0  0  0  0  0  0  0  0  0  0  0
   19.6316   18.1210   20.5974 C   0  0  0  0  0  0  0  0  0  0  0  0
   19.7758   18.8787   19.8148 H   0  0  0  0  0  0  0  0  0  0  0  0
   19.6468   17.1440   20.0949 H   0  0  0  0  0  0  0  0  0  0  0  0
   18.2554   18.3205   21.2676 C   0  0  0  0  0  0  0  0  0  0  0  0
   18.1789   19.3147   21.7268 H   0  0  0  0  0  0  0  0  0  0  0  0
   17.4491   18.2286   20.5284 H   0  0  0  0  0  0  0  0  0  0  0  0
   18.0866   17.5683   22.0491 H   0  0  0  0  0  0  0  0  0  0  0  0
  1  2  1  0  0  0  0
  1  3  2  0  0  0  0
  1  4  1  0  0  0  0
  4  5  1  0  0  0  0
  4  6  2  0  0  0  0
  6  7  1  0  0  0  0
  6  8  1  0  0  0  0
  8  9  1  0  0  0  0
  8 10  1  0  0  0  0
  8 11  1  0  0  0  0
 11 12  1  0  0  0  0
 11 13  1  0  0  0  0
 11 14  1  0  0  0  0
 14 15  1  0  0  0  0
 14 16  1  0  0  0  0
 14 17  1  0  0  0  0
M  END
> <VConfSearch Rank>
812

> <Conf_Id>
45

> <Delta U+W>
0.562

> <U+W>
-52.846

> <U>
10.243

> <W>
-63.089

> <W(PB)>
-65.116

> <W(SA)>
2.026

> <Valence>
2.822

> <Coulomb>
6.637

> <VdW>
0.785

> <VdW6>
-5.216

> <VdW12>
6.001

> <Bond>
0.080

> <Angle>
2.678

> <Pdih>
0.064

> <Idih>
0.000

> <Tether>
0.000

$$$$
VeraChem MOL file


 17 16  0  0  0  0  0  0  0  0999 V2000     
   19.9388   15.7461   21.8284 C   0  0  0  0  0  0  0  0  0  0  0  0
   19.1686   15.0033   21.2514 O   0  5  0  0  0  0  0  0  0  0  0  0
   20.7150   15.3595   22.6818 O   0  0  0  0  0  0  0  0  0  0  0  0
   19.9134   17.1866   21.4563 C   0  0  0  0  0  0  0  0  0  0  0  0
   19.1969   17.4656   20.6871 H   0  0  0  0  0  0  0  0  0  0  0  0
   20.7119   18.1238   22.0159 C   0  0  0  0  0  0  0  0  0  0  0  0
   21.4317   17.8557   22.7890 H   0  0  0  0  0  0  0  0  0  0  0  0
   20.6783   19.5873   21.6333 C   0  0  0  0  0  0  0  0  0  0  0  0
   20.5266   19.6888   20.5500 H   0  0  0  0  0  0  0  0  0  0  0  0
   21.6496   20.0484   21.8574 H   0  0  0  0  0  0  0  0  0  0  0  0
   19.5632   20.3398   22.3878 C   0  0  0  0  0  0  0  0  0  0  0  0
   18.5902   19.8822   22.1613 H   0  0  0  0  0  0  0  0  0  0  0  0
   19.7183   20.2385   23.4710 H   0  0  0  0  0  0  0  0  0  0  0  0
   19.5284   21.8344   22.0104 C   0  0  0  0  0  0  0  0  0  0  0  0
   20.4798   22.3241   22.2562 H   0  0  0  0  0  0  0  0  0  0  0  0
   19.3435   21.9641   20.9359 H   0  0  0  0  0  0  0  0  0  0  0  0
   18.7295   22.3527   22.5565 H   0  0  0  0  0  0  0  0  0  0  0  0
  1  2  1  0  0  0  0
  1  3  2  0  0  0  0
  1  4  1  0  0  0  0
  4  5  1  0  0  0  0
  4  6  2  0  0  0  0
  6  7  1  0  0  0  0
  6  8  1  0  0  0  0
  8  9  1  0  0  0  0
  8 10  1  0  0  0  0
  8 11  1  0  0  0  0
 11 12  1  0  0  0  0
 11 13  1  0  0  0  0
 11 14  1  0  0  0  0
 14 15  1  0  0  0  0
 14 16  1  0  0  0  0
 14 17  1  0  0  0  0
M  END
> <VConfSearch Rank>
813

> <Conf_Id>
36

> <Delta U+W>
0.000

> <U+W>
-53.409

> <U>
9.048

> <W>
-62.457

> <W(PB)>
-64.540

> <W(SA)>
2.084

> <Valence>
2.652

> <Coulomb>
5.578

> <VdW>
0.818

> <VdW6>
-4.534

> <VdW12>
5.352

> <Bond>
0.063

> <Angle>
2.579

> <Pdih>
0.010

> <Idih>
0.000

> <Tether>
0.000

$$$$
VeraChem MOL file


 17 16  0  0  0  0  0  0  0  0999 V2000     
   17.4401   21.2390   22.2986 C   0  0  0  0  0  0  0  0  0  0  0  0
   17.6976   21.9283   23.2676 O   0  5  0  0  0  0  0  0  0  0  0  0
   16.3497   21.2366   21.7613 O   0  0  0  0  0  0  0  0  0  0  0  0
   18.4900   20.3527   21.7273 C   0  0  0  0  0  0  0  0  0  0  0  0
   18.1946   19.7636   20.8621 H   0  0  0  0  0  0  0  0  0  0  0  0
   19.7445   20.2538   22.2229 C   0  0  0  0  0  0  0  0  0  0  0  0
   20.0504   20.8378   23.0907 H   0  0  0  0  0  0  0  0  0  0  0  0
   20.8058   19.3486   21.6369 C   0  0  0  0  0  0  0  0  0  0  0  0
   21.8014   19.7400   21.8859 H   0  0  0  0  0  0  0  0  0  0  0  0
   20.7354   19.3479   20.5407 H   0  0  0  0  0  0  0  0  0  0  0  0
   20.6705   17.9069   22.1681 C   0  0  0  0  0  0  0  0  0  0  0  0
   20.7434   17.9098   23.2646 H   0  0  0  0  0  0  0  0  0  0  0  0
   19.6763   17.5122   21.9163 H   0  0  0  0  0  0  0  0  0  0  0  0
   21.7546   16.9798   21.5826 C   0  0  0  0  0  0  0  0  0  0  0  0
   22.7595   17.3344   21.8468 H   0  0  0  0  0  0  0  0  0  0  0  0
   21.6422   15.9594   21.9717 H   0  0  0  0  0  0  0  0  0  0  0  0
   21.6835   16.9347   20.4879 H   0  0  0  0  0  0  0  0  0  0  0  0
  1  2  1  0  0  0  0
  1  3  2  0  0  0  0
  1  4  1  0  0  0  0
  4  5  1  0  0  0  0
  4  6  2  0  0  0  0
  6  7  1  0  0  0  0
  6  8  1  0  0  0  0
  8  9  1  0  0  0  0
  8 10  1  0  0  0  0
  8 11  1  0  0  0  0
 11 12  1  0  0  0  0
 11 13  1  0  0  0  0
 11 14  1  0  0  0  0
 14 15  1  0  0  0  0
 14 16  1  0  0  0  0
 14 17  1  0  0  0  0
M  END
> <VConfSearch Rank>
814

> <Conf_Id>
1

> <Delta U+W>
0.030

> <U+W>
-53.378

> <U>
9.048

> <W>
-62.426

> <W(PB)>
-64.506

> <W(SA)>
2.080

> <Valence>
2.652

> <Coulomb>
5.578

> <VdW>
0.818

> <VdW6>
-4.535

> <VdW12>
5.352

> <Bond>
0.063

> <Angle>
2.579

> <Pdih>
0.010

> <Idih>
0.000

> <Tether>
0.000

$$$$
VeraChem MOL file


 17 16  0  0  0  0  0  0  0  0999 V2000     
   20.1933   18.1431   19.1218 C   0  0  0  0  0  0  0  0  0  0  0  0
   20.0427   19.2015   18.5408 O   0  5  0  0  0  0  0  0  0  0  0  0
   20.6236   17.1460   18.5756 O   0  0  0  0  0  0  0  0  0  0  0  0
   19.8391   18.0387   20.5632 C   0  0  0  0  0  0  0  0  0  0  0  0
   19.9969   17.0651   21.0215 H   0  0  0  0  0  0  0  0  0  0  0  0
   19.3520   19.0657   21.2960 C   0  0  0  0  0  0  0  0  0  0  0  0
   19.1932   20.0463   20.8477 H   0  0  0  0  0  0  0  0  0  0  0  0
   18.9974   18.9529   22.7638 C   0  0  0  0  0  0  0  0  0  0  0  0
   18.5005   17.9911   22.9498 H   0  0  0  0  0  0  0  0  0  0  0  0
   18.2696   19.7304   23.0324 H   0  0  0  0  0  0  0  0  0  0  0  0
   20.2368   19.0676   23.6783 C   0  0  0  0  0  0  0  0  0  0  0  0
   19.9358   18.8739   24.7170 H   0  0  0  0  0  0  0  0  0  0  0  0
   20.9663   18.2900   23.4127 H   0  0  0  0  0  0  0  0  0  0  0  0
   20.9049   20.4568   23.5974 C   0  0  0  0  0  0  0  0  0  0  0  0
   20.1968   21.2497   23.8713 H   0  0  0  0  0  0  0  0  0  0  0  0
   21.7600   20.5142   24.2832 H   0  0  0  0  0  0  0  0  0  0  0  0
   21.2728   20.6609   22.5834 H   0  0  0  0  0  0  0  0  0  0  0  0
  1  2  1  0  0  0  0
  1  3  2  0  0  0  0
  1  4  1  0  0  0  0
  4  5  1  0  0  0  0
  4  6  2  0  0  0  0
  6  7  1  0  0  0  0
  6  8  1  0  0  0  0
  8  9  1  0  0  0  0
  8 10  1  0  0  0  0
  8 11  1  0  0  0  0
 11 12  1  0  0  0  0
 11 13  1  0  0  0  0
 11 14  1  0  0  0  0
 14 15  1  0  0  0  0
 14 16  1  0  0  0  0
 14 17  1  0  0  0  0
M  END
> <VConfSearch Rank>
815

> <Conf_Id>
3

> <Delta U+W>
0.531

> <U+W>
-52.878

> <U>
10.067

> <W>
-62.945

> <W(PB)>
-64.982

> <W(SA)>
2.037

> <Valence>
2.779

> <Coulomb>
6.474

> <VdW>
0.815

> <VdW6>
-5.088

> <VdW12>
5.902

> <Bond>
0.078

> <Angle>
2.651

> <Pdih>
0.050

> <Idih>
0.000

> <Tether>
0.000

$$$$
VeraChem MOL file


 17 16  0  0  0  0  0  0  0  0999 V2000     
   17.8996   16.9420   21.6922 C   0  0  0  0  0  0  0  0  0  0  0  0
   16.7879   16.8425   22.1739 O   0  5  0  0  0  0  0  0  0  0  0  0
   18.5101   15.9923   21.2386 O   0  0  0  0  0  0  0  0  0  0  0  0
   18.5182   18.2950   21.6645 C   0  0  0  0  0  0  0  0  0  0  0  0
   17.9188   19.0988   22.0857 H   0  0  0  0  0  0  0  0  0  0  0  0
   19.7474   18.5515   21.1616 C   0  0  0  0  0  0  0  0  0  0  0  0
   20.3561   17.7514   20.7411 H   0  0  0  0  0  0  0  0  0  0  0  0
   20.3755   19.9296   21.1374 C   0  0  0  0  0  0  0  0  0  0  0  0
   19.6116   20.7052   21.2842 H   0  0  0  0  0  0  0  0  0  0  0  0
   20.8062   20.1097   20.1434 H   0  0  0  0  0  0  0  0  0  0  0  0
   21.4853   20.0867   22.1999 C   0  0  0  0  0  0  0  0  0  0  0  0
   22.2486   19.3096   22.0554 H   0  0  0  0  0  0  0  0  0  0  0  0
   21.9886   21.0522   22.0525 H   0  0  0  0  0  0  0  0  0  0  0  0
   20.9403   20.0187   23.6425 C   0  0  0  0  0  0  0  0  0  0  0  0
   20.4855   19.0411   23.8486 H   0  0  0  0  0  0  0  0  0  0  0  0
   21.7490   20.1730   24.3684 H   0  0  0  0  0  0  0  0  0  0  0  0
   20.1803   20.7926   23.8118 H   0  0  0  0  0  0  0  0  0  0  0  0
  1  2  1  0  0  0  0
  1  3  2  0  0  0  0
  1  4  1  0  0  0  0
  4  5  1  0  0  0  0
  4  6  2  0  0  0  0
  6  7  1  0  0  0  0
  6  8  1  0  0  0  0
  8  9  1  0  0  0  0
  8 10  1  0  0  0  0
  8 11  1  0  0  0  0
 11 12  1  0  0  0  0
 11 13  1  0  0  0  0
 11 14  1  0  0  0  0
 14 15  1  0  0  0  0
 14 16  1  0  0  0  0
 14 17  1  0  0  0  0
M  END
> <VConfSearch Rank>
816

> <Conf_Id>
45

> <Delta U+W>
0.562

> <U+W>
-52.846

> <U>
10.243

> <W>
-63.089

> <W(PB)>
-65.116

> <W(SA)>
2.026

> <Valence>
2.822

> <Coulomb>
6.637

> <VdW>
0.785

> <VdW6>
-5.216

> <VdW12>
6.001

> <Bond>
0.080

> <Angle>
2.678

> <Pdih>
0.064

> <Idih>
0.000

> <Tether>
0.000

$$$$
VeraChem MOL file


 17 16  0  0  0  0  0  0  0  0999 V2000     
   17.5557   18.3572   24.1177 C   0  0  0  0  0  0  0  0  0  0  0  0
   16.7745   19.0952   24.6859 O   0  5  0  0  0  0  0  0  0  0  0  0
   17.7242   17.1969   24.4429 O   0  0  0  0  0  0  0  0  0  0  0  0
   18.3272   18.9200   22.9765 C   0  0  0  0  0  0  0  0  0  0  0  0
   18.1292   19.9625   22.7379 H   0  0  0  0  0  0  0  0  0  0  0  0
   19.2292   18.2155   22.2561 C   0  0  0  0  0  0  0  0  0  0  0  0
   19.4371   17.1711   22.4881 H   0  0  0  0  0  0  0  0  0  0  0  0
   20.0113   18.7961   21.0983 C   0  0  0  0  0  0  0  0  0  0  0  0
   19.3716   19.4716   20.5141 H   0  0  0  0  0  0  0  0  0  0  0  0
   20.3160   17.9888   20.4187 H   0  0  0  0  0  0  0  0  0  0  0  0
   21.2602   19.5567   21.5889 C   0  0  0  0  0  0  0  0  0  0  0  0
   20.9567   20.3674   22.2658 H   0  0  0  0  0  0  0  0  0  0  0  0
   21.8994   18.8785   22.1712 H   0  0  0  0  0  0  0  0  0  0  0  0
   22.0681   20.1436   20.4141 C   0  0  0  0  0  0  0  0  0  0  0  0
   22.4114   19.3497   19.7378 H   0  0  0  0  0  0  0  0  0  0  0  0
   21.4602   20.8497   19.8333 H   0  0  0  0  0  0  0  0  0  0  0  0
   22.9518   20.6806   20.7825 H   0  0  0  0  0  0  0  0  0  0  0  0
  1  2  1  0  0  0  0
  1  3  2  0  0  0  0
  1  4  1  0  0  0  0
  4  5  1  0  0  0  0
  4  6  2  0  0  0  0
  6  7  1  0  0  0  0
  6  8  1  0  0  0  0
  8  9  1  0  0  0  0
  8 10  1  0  0  0  0
  8 11  1  0  0  0  0
 11 12  1  0  0  0  0
 11 13  1  0  0  0  0
 11 14  1  0  0  0  0
 14 15  1  0  0  0  0
 14 16  1  0  0  0  0
 14 17  1  0  0  0  0
M  END
> <VConfSearch Rank>
817

> <Conf_Id>
36

> <Delta U+W>
0.000

> <U+W>
-53.409

> <U>
9.048

> <W>
-62.457

> <W(PB)>
-64.540

> <W(SA)>
2.084

> <Valence>
2.652

> <Coulomb>
5.578

> <VdW>
0.818

> <VdW6>
-4.534

> <VdW12>
5.352

> <Bond>
0.063

> <Angle>
2.579

> <Pdih>
0.010

> <Idih>
0.000

> <Tether>
0.000

$$$$
VeraChem MOL file


 17 16  0  0  0  0  0  0  0  0999 V2000     
   22.5633   21.1295   21.0576 C   0  0  0  0  0  0  0  0  0  0  0  0
   23.5413   20.4229   20.9000 O   0  5  0  0  0  0  0  0  0  0  0  0
   22.6251   22.3429   21.0967 O   0  0  0  0  0  0  0  0  0  0  0  0
   21.2218   20.5041   21.2102 C   0  0  0  0  0  0  0  0  0  0  0  0
   20.3904   21.1918   21.3475 H   0  0  0  0  0  0  0  0  0  0  0  0
   21.0055   19.1692   21.1880 C   0  0  0  0  0  0  0  0  0  0  0  0
   21.8315   18.4712   21.0532 H   0  0  0  0  0  0  0  0  0  0  0  0
   19.6380   18.5413   21.3458 C   0  0  0  0  0  0  0  0  0  0  0  0
   19.6308   17.5513   20.8701 H   0  0  0  0  0  0  0  0  0  0  0  0
   18.8847   19.1452   20.8219 H   0  0  0  0  0  0  0  0  0  0  0  0
   19.2517   18.4023   22.8325 C   0  0  0  0  0  0  0  0  0  0  0  0
   20.0054   17.7961   23.3539 H   0  0  0  0  0  0  0  0  0  0  0  0
   19.2544   19.3925   23.3090 H   0  0  0  0  0  0  0  0  0  0  0  0
   17.8628   17.7544   23.0022 C   0  0  0  0  0  0  0  0  0  0  0  0
   17.8417   16.7489   22.5617 H   0  0  0  0  0  0  0  0  0  0  0  0
   17.6055   17.6639   24.0656 H   0  0  0  0  0  0  0  0  0  0  0  0
   17.0855   18.3583   22.5157 H   0  0  0  0  0  0  0  0  0  0  0  0
  1  2  1  0  0  0  0
  1  3  2  0  0  0  0
  1  4  1  0  0  0  0
  4  5  1  0  0  0  0
  4  6  2  0  0  0  0
  6  7  1  0  0  0  0
  6  8  1  0  0  0  0
  8  9  1  0  0  0  0
  8 10  1  0  0  0  0
  8 11  1  0  0  0  0
 11 12  1  0  0  0  0
 11 13  1  0  0  0  0
 11 14  1  0  0  0  0
 14 15  1  0  0  0  0
 14 16  1  0  0  0  0
 14 17  1  0  0  0  0
M  END
> <VConfSearch Rank>
818

> <Conf_Id>
1

> <Delta U+W>
0.030

> <U+W>
-53.378

> <U>
9.048

> <W>
-62.426

> <W(PB)>
-64.506

> <W(SA)>
2.080

> <Valence>
2.652

> <Coulomb>
5.578

> <VdW>
0.818

> <VdW6>
-4.535

> <VdW12>
5.352

> <Bond>
0.063

> <Angle>
2.579

> <Pdih>
0.010

> <Idih>
0.000

> <Tether>
0.000

$$$$
VeraChem MOL file


 17 16  0  0  0  0  0  0  0  0999 V2000     
   22.3964   20.7969   23.0072 C   0  0  0  0  0  0  0  0  0  0  0  0
   23.1987   19.9231   23.2779 O   0  5  0  0  0  0  0  0  0  0  0  0
   22.7109   21.9639   22.8764 O   0  0  0  0  0  0  0  0  0  0  0  0
   20.9614   20.4474   22.8268 C   0  0  0  0  0  0  0  0  0  0  0  0
   20.2977   21.2750   22.5872 H   0  0  0  0  0  0  0  0  0  0  0  0
   20.4713   19.1921   22.9412 C   0  0  0  0  0  0  0  0  0  0  0  0
   21.1279   18.3551   23.1776 H   0  0  0  0  0  0  0  0  0  0  0  0
   19.0099   18.8433   22.7524 C   0  0  0  0  0  0  0  0  0  0  0  0
   18.3836   19.6159   23.2187 H   0  0  0  0  0  0  0  0  0  0  0  0
   18.7797   17.9056   23.2757 H   0  0  0  0  0  0  0  0  0  0  0  0
   18.6251   18.7111   21.2624 C   0  0  0  0  0  0  0  0  0  0  0  0
   17.5392   18.5632   21.1836 H   0  0  0  0  0  0  0  0  0  0  0  0
   18.8531   19.6485   20.7363 H   0  0  0  0  0  0  0  0  0  0  0  0
   19.3459   17.5363   20.5674 C   0  0  0  0  0  0  0  0  0  0  0  0
   19.1220   16.5860   21.0694 H   0  0  0  0  0  0  0  0  0  0  0  0
   19.0245   17.4509   19.5213 H   0  0  0  0  0  0  0  0  0  0  0  0
   20.4343   17.6796   20.5742 H   0  0  0  0  0  0  0  0  0  0  0  0
  1  2  1  0  0  0  0
  1  3  2  0  0  0  0
  1  4  1  0  0  0  0
  4  5  1  0  0  0  0
  4  6  2  0  0  0  0
  6  7  1  0  0  0  0
  6  8  1  0  0  0  0
  8  9  1  0  0  0  0
  8 10  1  0  0  0  0
  8 11  1  0  0  0  0
 11 12  1  0  0  0  0
 11 13  1  0  0  0  0
 11 14  1  0  0  0  0
 14 15  1  0  0  0  0
 14 16  1  0  0  0  0
 14 17  1  0  0  0  0
M  END
> <VConfSearch Rank>
819

> <Conf_Id>
3

> <Delta U+W>
0.531

> <U+W>
-52.878

> <U>
10.067

> <W>
-62.945

> <W(PB)>
-64.982

> <W(SA)>
2.037

> <Valence>
2.779

> <Coulomb>
6.474

> <VdW>
0.815

> <VdW6>
-5.088

> <VdW12>
5.902

> <Bond>
0.078

> <Angle>
2.651

> <Pdih>
0.050

> <Idih>
0.000

> <Tether>
0.000

$$$$
VeraChem MOL file


 17 16  0  0  0  0  0  0  0  0999 V2000     
   21.9623   20.9645   23.3799 C   0  0  0  0  0  0  0  0  0  0  0  0
   23.1366   21.1472   23.1241 O   0  5  0  0  0  0  0  0  0  0  0  0
   21.4677   21.2529   24.4535 O   0  0  0  0  0  0  0  0  0  0  0  0
   21.1126   20.3636   22.3164 C   0  0  0  0  0  0  0  0  0  0  0  0
   21.6175   20.1302   21.3819 H   0  0  0  0  0  0  0  0  0  0  0  0
   19.7935   20.1030   22.4632 C   0  0  0  0  0  0  0  0  0  0  0  0
   19.2806   20.3304   23.3974 H   0  0  0  0  0  0  0  0  0  0  0  0
   18.9317   19.4887   21.3795 C   0  0  0  0  0  0  0  0  0  0  0  0
   19.4232   19.5731   20.4007 H   0  0  0  0  0  0  0  0  0  0  0  0
   17.9954   20.0572   21.3010 H   0  0  0  0  0  0  0  0  0  0  0  0
   18.5964   18.0086   21.6660 C   0  0  0  0  0  0  0  0  0  0  0  0
   18.1071   17.9230   22.6461 H   0  0  0  0  0  0  0  0  0  0  0  0
   17.8705   17.6549   20.9209 H   0  0  0  0  0  0  0  0  0  0  0  0
   19.8427   17.0987   21.6253 C   0  0  0  0  0  0  0  0  0  0  0  0
   20.5655   17.3820   22.4014 H   0  0  0  0  0  0  0  0  0  0  0  0
   19.5615   16.0511   21.7939 H   0  0  0  0  0  0  0  0  0  0  0  0
   20.3438   17.1627   20.6507 H   0  0  0  0  0  0  0  0  0  0  0  0
  1  2  1  0  0  0  0
  1  3  2  0  0  0  0
  1  4  1  0  0  0  0
  4  5  1  0  0  0  0
  4  6  2  0  0  0  0
  6  7  1  0  0  0  0
  6  8  1  0  0  0  0
  8  9  1  0  0  0  0
  8 10  1  0  0  0  0
  8 11  1  0  0  0  0
 11 12  1  0  0  0  0
 11 13  1  0  0  0  0
 11 14  1  0  0  0  0
 14 15  1  0  0  0  0
 14 16  1  0  0  0  0
 14 17  1  0  0  0  0
M  END
> <VConfSearch Rank>
820

> <Conf_Id>
45

> <Delta U+W>
0.562

> <U+W>
-52.846

> <U>
10.243

> <W>
-63.089

> <W(PB)>
-65.116

> <W(SA)>
2.026

> <Valence>
2.822

> <Coulomb>
6.637

> <VdW>
0.785

> <VdW6>
-5.216

> <VdW12>
6.001

> <Bond>
0.080

> <Angle>
2.678

> <Pdih>
0.064

> <Idih>
0.000

> <Tether>
0.000

$$$$
VeraChem MOL file


 17 16  0  0  0  0  0  0  0  0999 V2000     
   23.2408   18.2079   21.8601 C   0  0  0  0  0  0  0  0  0  0  0  0
   24.1663   18.6953   21.2408 O   0  5  0  0  0  0  0  0  0  0  0  0
   23.3131   17.1271   22.4143 O   0  0  0  0  0  0  0  0  0  0  0  0
   21.9749   18.9867   21.9306 C   0  0  0  0  0  0  0  0  0  0  0  0
   21.9771   19.9439   21.4143 H   0  0  0  0  0  0  0  0  0  0  0  0
   20.8669   18.5667   22.5827 C   0  0  0  0  0  0  0  0  0  0  0  0
   20.8530   17.6083   23.1014 H   0  0  0  0  0  0  0  0  0  0  0  0
   19.5826   19.3640   22.6478 C   0  0  0  0  0  0  0  0  0  0  0  0
   19.8095   20.4337   22.7528 H   0  0  0  0  0  0  0  0  0  0  0  0
   19.0156   19.0755   23.5432 H   0  0  0  0  0  0  0  0  0  0  0  0
   18.7158   19.1365   21.3925 C   0  0  0  0  0  0  0  0  0  0  0  0
   19.2802   19.4286   20.4960 H   0  0  0  0  0  0  0  0  0  0  0  0
   18.4885   18.0662   21.2907 H   0  0  0  0  0  0  0  0  0  0  0  0
   17.4004   19.9384   21.4553 C   0  0  0  0  0  0  0  0  0  0  0  0
   16.8011   19.6427   22.3264 H   0  0  0  0  0  0  0  0  0  0  0  0
   17.6000   21.0157   21.5262 H   0  0  0  0  0  0  0  0  0  0  0  0
   16.7977   19.7640   20.5545 H   0  0  0  0  0  0  0  0  0  0  0  0
  1  2  1  0  0  0  0
  1  3  2  0  0  0  0
  1  4  1  0  0  0  0
  4  5  1  0  0  0  0
  4  6  2  0  0  0  0
  6  7  1  0  0  0  0
  6  8  1  0  0  0  0
  8  9  1  0  0  0  0
  8 10  1  0  0  0  0
  8 11  1  0  0  0  0
 11 12  1  0  0  0  0
 11 13  1  0  0  0  0
 11 14  1  0  0  0  0
 14 15  1  0  0  0  0
 14 16  1  0  0  0  0
 14 17  1  0  0  0  0
M  END
> <VConfSearch Rank>
821

> <Conf_Id>
36

> <Delta U+W>
0.000

> <U+W>
-53.409

> <U>
9.048

> <W>
-62.457

> <W(PB)>
-64.540

> <W(SA)>
2.084

> <Valence>
2.652

> <Coulomb>
5.578

> <VdW>
0.818

> <VdW6>
-4.534

> <VdW12>
5.352

> <Bond>
0.063

> <Angle>
2.579

> <Pdih>
0.010

> <Idih>
0.000

> <Tether>
0.000

$$$$
VeraChem MOL file


 17 16  0  0  0  0  0  0  0  0999 V2000     
   22.1294   20.3680   24.2110 C   0  0  0  0  0  0  0  0  0  0  0  0
   22.5646   19.4281   24.8495 O   0  5  0  0  0  0  0  0  0  0  0  0
   22.3009   21.5255   24.5403 O   0  0  0  0  0  0  0  0  0  0  0  0
   21.3512   20.1148   22.9682 C   0  0  0  0  0  0  0  0  0  0  0  0
   20.9913   20.9980   22.4454 H   0  0  0  0  0  0  0  0  0  0  0  0
   21.0834   18.8804   22.4850 C   0  0  0  0  0  0  0  0  0  0  0  0
   21.4373   17.9886   23.0020 H   0  0  0  0  0  0  0  0  0  0  0  0
   20.2896   18.6316   21.2212 C   0  0  0  0  0  0  0  0  0  0  0  0
   20.5670   17.6565   20.7985 H   0  0  0  0  0  0  0  0  0  0  0  0
   20.5445   19.3847   20.4631 H   0  0  0  0  0  0  0  0  0  0  0  0
   18.7721   18.6622   21.4956 C   0  0  0  0  0  0  0  0  0  0  0  0
   18.5193   17.9067   22.2524 H   0  0  0  0  0  0  0  0  0  0  0  0
   18.4921   19.6387   21.9147 H   0  0  0  0  0  0  0  0  0  0  0  0
   17.9559   18.4002   20.2139 C   0  0  0  0  0  0  0  0  0  0  0  0
   18.1937   17.4152   19.7910 H   0  0  0  0  0  0  0  0  0  0  0  0
   16.8797   18.4258   20.4288 H   0  0  0  0  0  0  0  0  0  0  0  0
   18.1674   19.1610   19.4511 H   0  0  0  0  0  0  0  0  0  0  0  0
  1  2  1  0  0  0  0
  1  3  2  0  0  0  0
  1  4  1  0  0  0  0
  4  5  1  0  0  0  0
  4  6  2  0  0  0  0
  6  7  1  0  0  0  0
  6  8  1  0  0  0  0
  8  9  1  0  0  0  0
  8 10  1  0  0  0  0
  8 11  1  0  0  0  0
 11 12  1  0  0  0  0
 11 13  1  0  0  0  0
 11 14  1  0  0  0  0
 14 15  1  0  0  0  0
 14 16  1  0  0  0  0
 14 17  1  0  0  0  0
M  END
> <VConfSearch Rank>
822

> <Conf_Id>
1

> <Delta U+W>
0.030

> <U+W>
-53.378

> <U>
9.048

> <W>
-62.426

> <W(PB)>
-64.506

> <W(SA)>
2.080

> <Valence>
2.652

> <Coulomb>
5.578

> <VdW>
0.818

> <VdW6>
-4.535

> <VdW12>
5.352

> <Bond>
0.063

> <Angle>
2.579

> <Pdih>
0.010

> <Idih>
0.000

> <Tether>
0.000

$$$$
VeraChem MOL file


 17 16  0  0  0  0  0  0  0  0999 V2000     
   20.8115   17.1216   19.8138 C   0  0  0  0  0  0  0  0  0  0  0  0
   20.7885   17.8647   18.8506 O   0  5  0  0  0  0  0  0  0  0  0  0
   21.3476   16.0308   19.7930 O   0  0  0  0  0  0  0  0  0  0  0  0
   20.1588   17.5426   21.0830 C   0  0  0  0  0  0  0  0  0  0  0  0
   20.2151   16.8318   21.9042 H   0  0  0  0  0  0  0  0  0  0  0  0
   19.5276   18.7271   21.2491 C   0  0  0  0  0  0  0  0  0  0  0  0
   19.4683   19.4480   20.4341 H   0  0  0  0  0  0  0  0  0  0  0  0
   18.8689   19.1503   22.5452 C   0  0  0  0  0  0  0  0  0  0  0  0
   18.3433   18.2935   22.9882 H   0  0  0  0  0  0  0  0  0  0  0  0
   18.1011   19.9091   22.3429 H   0  0  0  0  0  0  0  0  0  0  0  0
   19.8855   19.7042   23.5676 C   0  0  0  0  0  0  0  0  0  0  0  0
   19.3705   19.8946   24.5192 H   0  0  0  0  0  0  0  0  0  0  0  0
   20.6545   18.9466   23.7730 H   0  0  0  0  0  0  0  0  0  0  0  0
   20.5563   21.0088   23.0872 C   0  0  0  0  0  0  0  0  0  0  0  0
   19.8066   21.7854   22.8875 H   0  0  0  0  0  0  0  0  0  0  0  0
   21.2460   21.3918   23.8504 H   0  0  0  0  0  0  0  0  0  0  0  0
   21.1315   20.8428   22.1669 H   0  0  0  0  0  0  0  0  0  0  0  0
  1  2  1  0  0  0  0
  1  3  2  0  0  0  0
  1  4  1  0  0  0  0
  4  5  1  0  0  0  0
  4  6  2  0  0  0  0
  6  7  1  0  0  0  0
  6  8  1  0  0  0  0
  8  9  1  0  0  0  0
  8 10  1  0  0  0  0
  8 11  1  0  0  0  0
 11 12  1  0  0  0  0
 11 13  1  0  0  0  0
 11 14  1  0  0  0  0
 14 15  1  0  0  0  0
 14 16  1  0  0  0  0
 14 17  1  0  0  0  0
M  END
> <VConfSearch Rank>
823

> <Conf_Id>
3

> <Delta U+W>
0.531

> <U+W>
-52.878

> <U>
10.067

> <W>
-62.945

> <W(PB)>
-64.982

> <W(SA)>
2.037

> <Valence>
2.779

> <Coulomb>
6.474

> <VdW>
0.815

> <VdW6>
-5.088

> <VdW12>
5.902

> <Bond>
0.078

> <Angle>
2.651

> <Pdih>
0.050

> <Idih>
0.000

> <Tether>
0.000

$$$$
VeraChem MOL file


 17 16  0  0  0  0  0  0  0  0999 V2000     
   17.2182   19.2623   20.8596 C   0  0  0  0  0  0  0  0  0  0  0  0
   16.6919   20.1748   20.2530 O   0  5  0  0  0  0  0  0  0  0  0  0
   16.5840   18.3717   21.3936 O   0  0  0  0  0  0  0  0  0  0  0  0
   18.7042   19.2544   20.9359 C   0  0  0  0  0  0  0  0  0  0  0  0
   19.2087   20.0789   20.4374 H   0  0  0  0  0  0  0  0  0  0  0  0
   19.4208   18.3041   21.5785 C   0  0  0  0  0  0  0  0  0  0  0  0
   18.9232   17.4765   22.0836 H   0  0  0  0  0  0  0  0  0  0  0  0
   20.9335   18.3003   21.6567 C   0  0  0  0  0  0  0  0  0  0  0  0
   21.3616   18.9624   20.8919 H   0  0  0  0  0  0  0  0  0  0  0  0
   21.3016   17.2913   21.4277 H   0  0  0  0  0  0  0  0  0  0  0  0
   21.4493   18.7169   23.0515 C   0  0  0  0  0  0  0  0  0  0  0  0
   21.0194   18.0567   23.8175 H   0  0  0  0  0  0  0  0  0  0  0  0
   22.5380   18.5734   23.0886 H   0  0  0  0  0  0  0  0  0  0  0  0
   21.1242   20.1875   23.3901 C   0  0  0  0  0  0  0  0  0  0  0  0
   20.0399   20.3553   23.4260 H   0  0  0  0  0  0  0  0  0  0  0  0
   21.5390   20.4589   24.3694 H   0  0  0  0  0  0  0  0  0  0  0  0
   21.5513   20.8665   22.6407 H   0  0  0  0  0  0  0  0  0  0  0  0
  1  2  1  0  0  0  0
  1  3  2  0  0  0  0
  1  4  1  0  0  0  0
  4  5  1  0  0  0  0
  4  6  2  0  0  0  0
  6  7  1  0  0  0  0
  6  8  1  0  0  0  0
  8  9  1  0  0  0  0
  8 10  1  0  0  0  0
  8 11  1  0  0  0  0
 11 12  1  0  0  0  0
 11 13  1  0  0  0  0
 11 14  1  0  0  0  0
 14 15  1  0  0  0  0
 14 16  1  0  0  0  0
 14 17  1  0  0  0  0
M  END
> <VConfSearch Rank>
824

> <Conf_Id>
45

> <Delta U+W>
0.562

> <U+W>
-52.846

> <U>
10.243

> <W>
-63.089

> <W(PB)>
-65.116

> <W(SA)>
2.026

> <Valence>
2.822

> <Coulomb>
6.637

> <VdW>
0.785

> <VdW6>
-5.216

> <VdW12>
6.001

> <Bond>
0.080

> <Angle>
2.678

> <Pdih>
0.064

> <Idih>
0.000

> <Tether>
0.000

$$$$
VeraChem MOL file


 17 16  0  0  0  0  0  0  0  0999 V2000     
   18.2578   16.2698   22.4193 C   0  0  0  0  0  0  0  0  0  0  0  0
   18.5606   15.2898   23.0718 O   0  5  0  0  0  0  0  0  0  0  0  0
   17.3285   16.2792   21.6340 O   0  0  0  0  0  0  0  0  0  0  0  0
   19.0734   17.5000   22.6076 C   0  0  0  0  0  0  0  0  0  0  0  0
   19.8884   17.4241   23.3237 H   0  0  0  0  0  0  0  0  0  0  0  0
   18.8512   18.6599   21.9484 C   0  0  0  0  0  0  0  0  0  0  0  0
   18.0388   18.7462   21.2270 H   0  0  0  0  0  0  0  0  0  0  0  0
   19.6868   19.9060   22.1441 C   0  0  0  0  0  0  0  0  0  0  0  0
   19.9565   20.0147   23.2035 H   0  0  0  0  0  0  0  0  0  0  0  0
   19.0935   20.7918   21.8803 H   0  0  0  0  0  0  0  0  0  0  0  0
   20.9656   19.8660   21.2828 C   0  0  0  0  0  0  0  0  0  0  0  0
   21.5625   18.9824   21.5485 H   0  0  0  0  0  0  0  0  0  0  0  0
   20.6932   19.7592   20.2236 H   0  0  0  0  0  0  0  0  0  0  0  0
   21.8183   21.1370   21.4695 C   0  0  0  0  0  0  0  0  0  0  0  0
   21.2552   22.0340   21.1801 H   0  0  0  0  0  0  0  0  0  0  0  0
   22.1303   21.2506   22.5160 H   0  0  0  0  0  0  0  0  0  0  0  0
   22.7231   21.0903   20.8494 H   0  0  0  0  0  0  0  0  0  0  0  0
  1  2  1  0  0  0  0
  1  3  2  0  0  0  0
  1  4  1  0  0  0  0
  4  5  1  0  0  0  0
  4  6  2  0  0  0  0
  6  7  1  0  0  0  0
  6  8  1  0  0  0  0
  8  9  1  0  0  0  0
  8 10  1  0  0  0  0
  8 11  1  0  0  0  0
 11 12  1  0  0  0  0
 11 13  1  0  0  0  0
 11 14  1  0  0  0  0
 14 15  1  0  0  0  0
 14 16  1  0  0  0  0
 14 17  1  0  0  0  0
M  END
> <VConfSearch Rank>
825

> <Conf_Id>
36

> <Delta U+W>
0.000

> <U+W>
-53.409

> <U>
9.048

> <W>
-62.457

> <W(PB)>
-64.540

> <W(SA)>
2.084

> <Valence>
2.652

> <Coulomb>
5.578

> <VdW>
0.818

> <VdW6>
-4.534

> <VdW12>
5.352

> <Bond>
0.063

> <Angle>
2.579

> <Pdih>
0.010

> <Idih>
0.000

> <Tether>
0.000

$$$$
VeraChem MOL file


 17 16  0  0  0  0  0  0  0  0999 V2000     
   16.9428   18.6290   23.2286 C   0  0  0  0  0  0  0  0  0  0  0  0
   17.0758   17.8824   24.1801 O   0  5  0  0  0  0  0  0  0  0  0  0
   15.8570   18.9289   22.7716 O   0  0  0  0  0  0  0  0  0  0  0  0
   18.1472   19.2143   22.5797 C   0  0  0  0  0  0  0  0  0  0  0  0
   17.9584   19.8731   21.7351 H   0  0  0  0  0  0  0  0  0  0  0  0
   19.4148   18.9675   22.9814 C   0  0  0  0  0  0  0  0  0  0  0  0
   19.6154   18.3074   23.8251 H   0  0  0  0  0  0  0  0  0  0  0  0
   20.6343   19.5654   22.3148 C   0  0  0  0  0  0  0  0  0  0  0  0
   21.4659   19.5993   23.0316 H   0  0  0  0  0  0  0  0  0  0  0  0
   20.4310   20.6047   22.0227 H   0  0  0  0  0  0  0  0  0  0  0  0
   21.0543   18.7490   21.0754 C   0  0  0  0  0  0  0  0  0  0  0  0
   21.2592   17.7105   21.3704 H   0  0  0  0  0  0  0  0  0  0  0  0
   20.2248   18.7176   20.3553 H   0  0  0  0  0  0  0  0  0  0  0  0
   22.3024   19.3468   20.3955 C   0  0  0  0  0  0  0  0  0  0  0  0
   23.1568   19.3607   21.0849 H   0  0  0  0  0  0  0  0  0  0  0  0
   22.5858   18.7531   19.5167 H   0  0  0  0  0  0  0  0  0  0  0  0
   22.1136   20.3759   20.0626 H   0  0  0  0  0  0  0  0  0  0  0  0
  1  2  1  0  0  0  0
  1  3  2  0  0  0  0
  1  4  1  0  0  0  0
  4  5  1  0  0  0  0
  4  6  2  0  0  0  0
  6  7  1  0  0  0  0
  6  8  1  0  0  0  0
  8  9  1  0  0  0  0
  8 10  1  0  0  0  0
  8 11  1  0  0  0  0
 11 12  1  0  0  0  0
 11 13  1  0  0  0  0
 11 14  1  0  0  0  0
 14 15  1  0  0  0  0
 14 16  1  0  0  0  0
 14 17  1  0  0  0  0
M  END
> <VConfSearch Rank>
826

> <Conf_Id>
1

> <Delta U+W>
0.030

> <U+W>
-53.378

> <U>
9.048

> <W>
-62.426

> <W(PB)>
-64.506

> <W(SA)>
2.080

> <Valence>
2.652

> <Coulomb>
5.578

> <VdW>
0.818

> <VdW6>
-4.535

> <VdW12>
5.352

> <Bond>
0.063

> <Angle>
2.579

> <Pdih>
0.010

> <Idih>
0.000

> <Tether>
0.000

$$$$
VeraChem MOL file


 17 16  0  0  0  0  0  0  0  0999 V2000     
   17.4392   20.6407   22.7185 C   0  0  0  0  0  0  0  0  0  0  0  0
   16.7065   19.7226   23.0360 O   0  5  0  0  0  0  0  0  0  0  0  0
   17.1901   21.8026   22.9745 O   0  0  0  0  0  0  0  0  0  0  0  0
   18.6994   20.3544   21.9808 C   0  0  0  0  0  0  0  0  0  0  0  0
   19.3077   21.2194   21.7267 H   0  0  0  0  0  0  0  0  0  0  0  0
   19.1026   19.1116   21.6316 C   0  0  0  0  0  0  0  0  0  0  0  0
   18.5025   18.2377   21.8842 H   0  0  0  0  0  0  0  0  0  0  0  0
   20.3885   18.8276   20.8842 C   0  0  0  0  0  0  0  0  0  0  0  0
   20.5352   19.5853   20.1025 H   0  0  0  0  0  0  0  0  0  0  0  0
   20.3128   17.8628   20.3649 H   0  0  0  0  0  0  0  0  0  0  0  0
   21.6200   18.8170   21.8164 C   0  0  0  0  0  0  0  0  0  0  0  0
   22.5295   18.7125   21.2089 H   0  0  0  0  0  0  0  0  0  0  0  0
   21.6992   19.7817   22.3365 H   0  0  0  0  0  0  0  0  0  0  0  0
   21.5694   17.6717   22.8501 C   0  0  0  0  0  0  0  0  0  0  0  0
   21.5027   16.6958   22.3519 H   0  0  0  0  0  0  0  0  0  0  0  0
   22.4736   17.6735   23.4725 H   0  0  0  0  0  0  0  0  0  0  0  0
   20.7027   17.7769   23.5157 H   0  0  0  0  0  0  0  0  0  0  0  0
  1  2  1  0  0  0  0
  1  3  2  0  0  0  0
  1  4  1  0  0  0  0
  4  5  1  0  0  0  0
  4  6  2  0  0  0  0
  6  7  1  0  0  0  0
  6  8  1  0  0  0  0
  8  9  1  0  0  0  0
  8 10  1  0  0  0  0
  8 11  1  0  0  0  0
 11 12  1  0  0  0  0
 11 13  1  0  0  0  0
 11 14  1  0  0  0  0
 14 15  1  0  0  0  0
 14 16  1  0  0  0  0
 14 17  1  0  0  0  0
M  END
> <VConfSearch Rank>
827

> <Conf_Id>
3

> <Delta U+W>
0.531

> <U+W>
-52.878

> <U>
10.067

> <W>
-62.945

> <W(PB)>
-64.982

> <W(SA)>
2.037

> <Valence>
2.779

> <Coulomb>
6.474

> <VdW>
0.815

> <VdW6>
-5.088

> <VdW12>
5.902

> <Bond>
0.078

> <Angle>
2.651

> <Pdih>
0.050

> <Idih>
0.000

> <Tether>
0.000

$$$$
VeraChem MOL file


 17 16  0  0  0  0  0  0  0  0999 V2000     
   22.9618   19.1902   22.5246 C   0  0  0  0  0  0  0  0  0  0  0  0
   23.7038   18.3386   22.9742 O   0  5  0  0  0  0  0  0  0  0  0  0
   23.2489   20.3724   22.5047 O   0  0  0  0  0  0  0  0  0  0  0  0
   21.6526   18.7420   21.9778 C   0  0  0  0  0  0  0  0  0  0  0  0
   21.4597   17.6728   22.0265 H   0  0  0  0  0  0  0  0  0  0  0  0
   20.7303   19.5787   21.4496 C   0  0  0  0  0  0  0  0  0  0  0  0
   20.9140   20.6517   21.4003 H   0  0  0  0  0  0  0  0  0  0  0  0
   19.3971   19.1197   20.8962 C   0  0  0  0  0  0  0  0  0  0  0  0
   19.4116   18.0389   20.7000 H   0  0  0  0  0  0  0  0  0  0  0  0
   19.2263   19.6039   19.9254 H   0  0  0  0  0  0  0  0  0  0  0  0
   18.2225   19.4601   21.8393 C   0  0  0  0  0  0  0  0  0  0  0  0
   18.2089   20.5408   22.0382 H   0  0  0  0  0  0  0  0  0  0  0  0
   17.2764   19.2222   21.3338 H   0  0  0  0  0  0  0  0  0  0  0  0
   18.2884   18.6863   23.1733 C   0  0  0  0  0  0  0  0  0  0  0  0
   19.1922   18.9479   23.7388 H   0  0  0  0  0  0  0  0  0  0  0  0
   17.4191   18.9232   23.8004 H   0  0  0  0  0  0  0  0  0  0  0  0
   18.2953   17.6026   22.9986 H   0  0  0  0  0  0  0  0  0  0  0  0
  1  2  1  0  0  0  0
  1  3  2  0  0  0  0
  1  4  1  0  0  0  0
  4  5  1  0  0  0  0
  4  6  2  0  0  0  0
  6  7  1  0  0  0  0
  6  8  1  0  0  0  0
  8  9  1  0  0  0  0
  8 10  1  0  0  0  0
  8 11  1  0  0  0  0
 11 12  1  0  0  0  0
 11 13  1  0  0  0  0
 11 14  1  0  0  0  0
 14 15  1  0  0  0  0
 14 16  1  0  0  0  0
 14 17  1  0  0  0  0
M  END
> <VConfSearch Rank>
828

> <Conf_Id>
45

> <Delta U+W>
0.562

> <U+W>
-52.846

> <U>
10.243

> <W>
-63.089

> <W(PB)>
-65.116

> <W(SA)>
2.026

> <Valence>
2.822

> <Coulomb>
6.637

> <VdW>
0.785

> <VdW6>
-5.216

> <VdW12>
6.001

> <Bond>
0.080

> <Angle>
2.678

> <Pdih>
0.064

> <Idih>
0.000

> <Tether>
0.000

$$$$
VeraChem MOL file


 17 16  0  0  0  0  0  0  0  0999 V2000     
   17.5906   21.2348   22.9735 C   0  0  0  0  0  0  0  0  0  0  0  0
   17.6975   22.3672   23.4025 O   0  5  0  0  0  0  0  0  0  0  0  0
   16.5667   20.5850   23.0718 O   0  0  0  0  0  0  0  0  0  0  0  0
   18.7772   20.6394   22.3014 C   0  0  0  0  0  0  0  0  0  0  0  0
   19.6595   21.2730   22.2471 H   0  0  0  0  0  0  0  0  0  0  0  0
   18.8008   19.3919   21.7795 C   0  0  0  0  0  0  0  0  0  0  0  0
   17.9231   18.7478   21.8305 H   0  0  0  0  0  0  0  0  0  0  0  0
   20.0125   18.7931   21.0995 C   0  0  0  0  0  0  0  0  0  0  0  0
   20.5250   19.5595   20.5022 H   0  0  0  0  0  0  0  0  0  0  0  0
   19.6915   18.0123   20.3969 H   0  0  0  0  0  0  0  0  0  0  0  0
   20.9933   18.1917   22.1267 C   0  0  0  0  0  0  0  0  0  0  0  0
   21.3187   18.9726   22.8279 H   0  0  0  0  0  0  0  0  0  0  0  0
   20.4790   17.4240   22.7215 H   0  0  0  0  0  0  0  0  0  0  0  0
   22.2269   17.5707   21.4409 C   0  0  0  0  0  0  0  0  0  0  0  0
   21.9318   16.7641   20.7569 H   0  0  0  0  0  0  0  0  0  0  0  0
   22.7771   18.3255   20.8639 H   0  0  0  0  0  0  0  0  0  0  0  0
   22.9126   17.1485   22.1870 H   0  0  0  0  0  0  0  0  0  0  0  0
  1  2  1  0  0  0  0
  1  3  2  0  0  0  0
  1  4  1  0  0  0  0
  4  5  1  0  0  0  0
  4  6  2  0  0  0  0
  6  7  1  0  0  0  0
  6  8  1  0  0  0  0
  8  9  1  0  0  0  0
  8 10  1  0  0  0  0
  8 11  1  0  0  0  0
 11 12  1  0  0  0  0
 11 13  1  0  0  0  0
 11 14  1  0  0  0  0
 14 15  1  0  0  0  0
 14 16  1  0  0  0  0
 14 17  1  0  0  0  0
M  END
> <VConfSearch Rank>
829

> <Conf_Id>
36

> <Delta U+W>
0.000

> <U+W>
-53.409

> <U>
9.048

> <W>
-62.457

> <W(PB)>
-64.540

> <W(SA)>
2.084

> <Valence>
2.652

> <Coulomb>
5.578

> <VdW>
0.818

> <VdW6>
-4.534

> <VdW12>
5.352

> <Bond>
0.063

> <Angle>
2.579

> <Pdih>
0.010

> <Idih>
0.000

> <Tether>
0.000

$$$$
VeraChem MOL file


 17 16  0  0  0  0  0  0  0  0999 V2000     
   20.2049   15.7270   22.0098 C   0  0  0  0  0  0  0  0  0  0  0  0
   21.3547   15.4313   21.7436 O   0  5  0  0  0  0  0  0  0  0  0  0
   19.3093   14.9071   22.0692 O   0  0  0  0  0  0  0  0  0  0  0  0
   19.8552   17.1479   22.2797 C   0  0  0  0  0  0  0  0  0  0  0  0
   18.8107   17.3439   22.5113 H   0  0  0  0  0  0  0  0  0  0  0  0
   20.7481   18.1632   22.2473 C   0  0  0  0  0  0  0  0  0  0  0  0
   21.7966   17.9784   22.0142 H   0  0  0  0  0  0  0  0  0  0  0  0
   20.3838   19.6059   22.5212 C   0  0  0  0  0  0  0  0  0  0  0  0
   21.2719   20.1495   22.8707 H   0  0  0  0  0  0  0  0  0  0  0  0
   19.6453   19.6592   23.3328 H   0  0  0  0  0  0  0  0  0  0  0  0
   19.8214   20.2927   21.2598 C   0  0  0  0  0  0  0  0  0  0  0  0
   20.5626   20.2400   20.4503 H   0  0  0  0  0  0  0  0  0  0  0  0
   18.9303   19.7524   20.9112 H   0  0  0  0  0  0  0  0  0  0  0  0
   19.4562   21.7665   21.5284 C   0  0  0  0  0  0  0  0  0  0  0  0
   20.3375   22.3377   21.8484 H   0  0  0  0  0  0  0  0  0  0  0  0
   19.0583   22.2379   20.6203 H   0  0  0  0  0  0  0  0  0  0  0  0
   18.6928   21.8453   22.3134 H   0  0  0  0  0  0  0  0  0  0  0  0
  1  2  1  0  0  0  0
  1  3  2  0  0  0  0
  1  4  1  0  0  0  0
  4  5  1  0  0  0  0
  4  6  2  0  0  0  0
  6  7  1  0  0  0  0
  6  8  1  0  0  0  0
  8  9  1  0  0  0  0
  8 10  1  0  0  0  0
  8 11  1  0  0  0  0
 11 12  1  0  0  0  0
 11 13  1  0  0  0  0
 11 14  1  0  0  0  0
 14 15  1  0  0  0  0
 14 16  1  0  0  0  0
 14 17  1  0  0  0  0
M  END
> <VConfSearch Rank>
830

> <Conf_Id>
1

> <Delta U+W>
0.030

> <U+W>
-53.378

> <U>
9.048

> <W>
-62.426

> <W(PB)>
-64.506

> <W(SA)>
2.080

> <Valence>
2.652

> <Coulomb>
5.578

> <VdW>
0.818

> <VdW6>
-4.535

> <VdW12>
5.352

> <Bond>
0.063

> <Angle>
2.579

> <Pdih>
0.010

> <Idih>
0.000

> <Tether>
0.000

$$$$
VeraChem MOL file


 17 16  0  0  0  0  0  0  0  0999 V2000     
   18.1152   18.9003   24.4690 C   0  0  0  0  0  0  0  0  0  0  0  0
   17.5044   17.8859   24.1893 O   0  5  0  0  0  0  0  0  0  0  0  0
   18.1045   19.3916   25.5809 O   0  0  0  0  0  0  0  0  0  0  0  0
   18.9146   19.5901   23.4205 C   0  0  0  0  0  0  0  0  0  0  0  0
   19.4350   20.4913   23.7365 H   0  0  0  0  0  0  0  0  0  0  0  0
   19.0176   19.1559   22.1439 C   0  0  0  0  0  0  0  0  0  0  0  0
   18.5032   18.2524   21.8175 H   0  0  0  0  0  0  0  0  0  0  0  0
   19.8364   19.8611   21.0831 C   0  0  0  0  0  0  0  0  0  0  0  0
   19.7081   20.9477   21.1807 H   0  0  0  0  0  0  0  0  0  0  0  0
   19.4610   19.5969   20.0853 H   0  0  0  0  0  0  0  0  0  0  0  0
   21.3395   19.5184   21.1766 C   0  0  0  0  0  0  0  0  0  0  0  0
   21.8941   20.1356   20.4564 H   0  0  0  0  0  0  0  0  0  0  0  0
   21.7184   19.7829   22.1736 H   0  0  0  0  0  0  0  0  0  0  0  0
   21.6255   18.0289   20.8901 C   0  0  0  0  0  0  0  0  0  0  0  0
   21.2661   17.7449   19.8924 H   0  0  0  0  0  0  0  0  0  0  0  0
   22.7038   17.8280   20.9318 H   0  0  0  0  0  0  0  0  0  0  0  0
   21.1340   17.3820   21.6285 H   0  0  0  0  0  0  0  0  0  0  0  0
  1  2  1  0  0  0  0
  1  3  2  0  0  0  0
  1  4  1  0  0  0  0
  4  5  1  0  0  0  0
  4  6  2  0  0  0  0
  6  7  1  0  0  0  0
  6  8  1  0  0  0  0
  8  9  1  0  0  0  0
  8 10  1  0  0  0  0
  8 11  1  0  0  0  0
 11 12  1  0  0  0  0
 11 13  1  0  0  0  0
 11 14  1  0  0  0  0
 14 15  1  0  0  0  0
 14 16  1  0  0  0  0
 14 17  1  0  0  0  0
M  END
> <VConfSearch Rank>
831

> <Conf_Id>
3

> <Delta U+W>
0.531

> <U+W>
-52.878

> <U>
10.067

> <W>
-62.945

> <W(PB)>
-64.982

> <W(SA)>
2.037

> <Valence>
2.779

> <Coulomb>
6.474

> <VdW>
0.815

> <VdW6>
-5.088

> <VdW12>
5.902

> <Bond>
0.078

> <Angle>
2.651

> <Pdih>
0.050

> <Idih>
0.000

> <Tether>
0.000

$$$$
VeraChem MOL file


 17 16  0  0  0  0  0  0  0  0999 V2000     
   21.1545   16.4827   23.0169 C   0  0  0  0  0  0  0  0  0  0  0  0
   22.1347   16.2777   23.7061 O   0  5  0  0  0  0  0  0  0  0  0  0
   20.6738   15.6383   22.2846 O   0  0  0  0  0  0  0  0  0  0  0  0
   20.5316   17.8319   23.0919 C   0  0  0  0  0  0  0  0  0  0  0  0
   21.0110   18.5384   23.7655 H   0  0  0  0  0  0  0  0  0  0  0  0
   19.4412   18.1991   22.3806 C   0  0  0  0  0  0  0  0  0  0  0  0
   18.9569   17.4987   21.7007 H   0  0  0  0  0  0  0  0  0  0  0  0
   18.8109   19.5744   22.4571 C   0  0  0  0  0  0  0  0  0  0  0  0
   19.1482   20.1044   23.3582 H   0  0  0  0  0  0  0  0  0  0  0  0
   17.7228   19.4648   22.5566 H   0  0  0  0  0  0  0  0  0  0  0  0
   19.1160   20.4292   21.2076 C   0  0  0  0  0  0  0  0  0  0  0  0
   18.7814   19.8985   20.3054 H   0  0  0  0  0  0  0  0  0  0  0  0
   18.5334   21.3594   21.2587 H   0  0  0  0  0  0  0  0  0  0  0  0
   20.6137   20.7803   21.0793 C   0  0  0  0  0  0  0  0  0  0  0  0
   21.2239   19.8755   20.9609 H   0  0  0  0  0  0  0  0  0  0  0  0
   20.7868   21.4196   20.2039 H   0  0  0  0  0  0  0  0  0  0  0  0
   20.9682   21.3187   21.9679 H   0  0  0  0  0  0  0  0  0  0  0  0
  1  2  1  0  0  0  0
  1  3  2  0  0  0  0
  1  4  1  0  0  0  0
  4  5  1  0  0  0  0
  4  6  2  0  0  0  0
  6  7  1  0  0  0  0
  6  8  1  0  0  0  0
  8  9  1  0  0  0  0
  8 10  1  0  0  0  0
  8 11  1  0  0  0  0
 11 12  1  0  0  0  0
 11 13  1  0  0  0  0
 11 14  1  0  0  0  0
 14 15  1  0  0  0  0
 14 16  1  0  0  0  0
 14 17  1  0  0  0  0
M  END
> <VConfSearch Rank>
832

> <Conf_Id>
45

> <Delta U+W>
0.562

> <U+W>
-52.846

> <U>
10.243

> <W>
-63.089

> <W(PB)>
-65.116

> <W(SA)>
2.026

> <Valence>
2.822

> <Coulomb>
6.637

> <VdW>
0.785

> <VdW6>
-5.216

> <VdW12>
6.001

> <Bond>
0.080

> <Angle>
2.678

> <Pdih>
0.064

> <Idih>
0.000

> <Tether>
0.000

$$$$
VeraChem MOL file


 17 16  0  0  0  0  0  0  0  0999 V2000     
   18.4465   16.4820   20.4857 C   0  0  0  0  0  0  0  0  0  0  0  0
   17.4516   16.4592   19.7876 O   0  5  0  0  0  0  0  0  0  0  0  0
   18.9322   15.4801   20.9765 O   0  0  0  0  0  0  0  0  0  0  0  0
   19.0813   17.8044   20.7352 C   0  0  0  0  0  0  0  0  0  0  0  0
   18.5975   18.6589   20.2675 H   0  0  0  0  0  0  0  0  0  0  0  0
   20.1889   17.9782   21.4915 C   0  0  0  0  0  0  0  0  0  0  0  0
   20.6803   17.1293   21.9667 H   0  0  0  0  0  0  0  0  0  0  0  0
   20.8270   19.3270   21.7421 C   0  0  0  0  0  0  0  0  0  0  0  0
   20.7828   19.9385   20.8306 H   0  0  0  0  0  0  0  0  0  0  0  0
   21.8915   19.1924   21.9768 H   0  0  0  0  0  0  0  0  0  0  0  0
   20.1327   20.0702   22.9017 C   0  0  0  0  0  0  0  0  0  0  0  0
   19.0684   20.2094   22.6666 H   0  0  0  0  0  0  0  0  0  0  0  0
   20.1800   19.4575   23.8127 H   0  0  0  0  0  0  0  0  0  0  0  0
   20.7833   21.4423   23.1697 C   0  0  0  0  0  0  0  0  0  0  0  0
   21.8418   21.3295   23.4387 H   0  0  0  0  0  0  0  0  0  0  0  0
   20.7216   22.0863   22.2827 H   0  0  0  0  0  0  0  0  0  0  0  0
   20.2764   21.9556   23.9971 H   0  0  0  0  0  0  0  0  0  0  0  0
  1  2  1  0  0  0  0
  1  3  2  0  0  0  0
  1  4  1  0  0  0  0
  4  5  1  0  0  0  0
  4  6  2  0  0  0  0
  6  7  1  0  0  0  0
  6  8  1  0  0  0  0
  8  9  1  0  0  0  0
  8 10  1  0  0  0  0
  8 11  1  0  0  0  0
 11 12  1  0  0  0  0
 11 13  1  0  0  0  0
 11 14  1  0  0  0  0
 14 15  1  0  0  0  0
 14 16  1  0  0  0  0
 14 17  1  0  0  0  0
M  END
> <VConfSearch Rank>
833

> <Conf_Id>
36

> <Delta U+W>
0.000

> <U+W>
-53.409

> <U>
9.048

> <W>
-62.457

> <W(PB)>
-64.540

> <W(SA)>
2.084

> <Valence>
2.652

> <Coulomb>
5.578

> <VdW>
0.818

> <VdW6>
-4.534

> <VdW12>
5.352

> <Bond>
0.063

> <Angle>
2.579

> <Pdih>
0.010

> <Idih>
0.000

> <Tether>
0.000

$$$$
VeraChem MOL file


 17 16  0  0  0  0  0  0  0  0999 V2000     
   20.7691   16.0175   20.7531 C   0  0  0  0  0  0  0  0  0  0  0  0
   19.7177   15.4901   20.4420 O   0  5  0  0  0  0  0  0  0  0  0  0
   21.8204   15.4099   20.8115 O   0  0  0  0  0  0  0  0  0  0  0  0
   20.7949   17.4690   21.0796 C   0  0  0  0  0  0  0  0  0  0  0  0
   21.7661   17.8776   21.3494 H   0  0  0  0  0  0  0  0  0  0  0  0
   19.7027   18.2662   21.0568 C   0  0  0  0  0  0  0  0  0  0  0  0
   18.7244   17.8667   20.7900 H   0  0  0  0  0  0  0  0  0  0  0  0
   19.7372   19.7412   21.3920 C   0  0  0  0  0  0  0  0  0  0  0  0
   18.8980   20.2502   20.8990 H   0  0  0  0  0  0  0  0  0  0  0  0
   20.6551   20.1953   20.9944 H   0  0  0  0  0  0  0  0  0  0  0  0
   19.6589   19.9734   22.9148 C   0  0  0  0  0  0  0  0  0  0  0  0
   18.7390   19.5203   23.3097 H   0  0  0  0  0  0  0  0  0  0  0  0
   20.5003   19.4682   23.4092 H   0  0  0  0  0  0  0  0  0  0  0  0
   19.6842   21.4750   23.2643 C   0  0  0  0  0  0  0  0  0  0  0  0
   18.8343   21.9991   22.8077 H   0  0  0  0  0  0  0  0  0  0  0  0
   19.6277   21.6202   24.3509 H   0  0  0  0  0  0  0  0  0  0  0  0
   20.6095   21.9459   22.9072 H   0  0  0  0  0  0  0  0  0  0  0  0
  1  2  1  0  0  0  0
  1  3  2  0  0  0  0
  1  4  1  0  0  0  0
  4  5  1  0  0  0  0
  4  6  2  0  0  0  0
  6  7  1  0  0  0  0
  6  8  1  0  0  0  0
  8  9  1  0  0  0  0
  8 10  1  0  0  0  0
  8 11  1  0  0  0  0
 11 12  1  0  0  0  0
 11 13  1  0  0  0  0
 11 14  1  0  0  0  0
 14 15  1  0  0  0  0
 14 16  1  0  0  0  0
 14 17  1  0  0  0  0
M  END
> <VConfSearch Rank>
834

> <Conf_Id>
1

> <Delta U+W>
0.030

> <U+W>
-53.378

> <U>
9.048

> <W>
-62.426

> <W(PB)>
-64.506

> <W(SA)>
2.080

> <Valence>
2.652

> <Coulomb>
5.578

> <VdW>
0.818

> <VdW6>
-4.535

> <VdW12>
5.352

> <Bond>
0.063

> <Angle>
2.579

> <Pdih>
0.010

> <Idih>
0.000

> <Tether>
0.000

$$$$
VeraChem MOL file


 17 16  0  0  0  0  0  0  0  0999 V2000     
   18.3702   19.6121   19.4979 C   0  0  0  0  0  0  0  0  0  0  0  0
   19.2198   20.1189   18.7895 O   0  5  0  0  0  0  0  0  0  0  0  0
   17.3173   19.1865   19.0641 O   0  0  0  0  0  0  0  0  0  0  0  0
   18.6054   19.5001   20.9629 C   0  0  0  0  0  0  0  0  0  0  0  0
   17.8062   19.0384   21.5381 H   0  0  0  0  0  0  0  0  0  0  0  0
   19.7292   19.9294   21.5808 C   0  0  0  0  0  0  0  0  0  0  0  0
   20.5376   20.3904   21.0137 H   0  0  0  0  0  0  0  0  0  0  0  0
   19.9632   19.8086   23.0720 C   0  0  0  0  0  0  0  0  0  0  0  0
   19.0351   20.0431   23.6106 H   0  0  0  0  0  0  0  0  0  0  0  0
   20.7016   20.5545   23.3952 H   0  0  0  0  0  0  0  0  0  0  0  0
   20.4421   18.3978   23.4792 C   0  0  0  0  0  0  0  0  0  0  0  0
   20.4930   18.3382   24.5751 H   0  0  0  0  0  0  0  0  0  0  0  0
   19.7045   17.6492   23.1582 H   0  0  0  0  0  0  0  0  0  0  0  0
   21.8259   18.0500   22.8903 C   0  0  0  0  0  0  0  0  0  0  0  0
   22.5826   18.7788   23.2087 H   0  0  0  0  0  0  0  0  0  0  0  0
   22.1497   17.0565   23.2264 H   0  0  0  0  0  0  0  0  0  0  0  0
   21.7985   18.0414   21.7929 H   0  0  0  0  0  0  0  0  0  0  0  0
  1  2  1  0  0  0  0
  1  3  2  0  0  0  0
  1  4  1  0  0  0  0
  4  5  1  0  0  0  0
  4  6  2  0  0  0  0
  6  7  1  0  0  0  0
  6  8  1  0  0  0  0
  8  9  1  0  0  0  0
  8 10  1  0  0  0  0
  8 11  1  0  0  0  0
 11 12  1  0  0  0  0
 11 13  1  0  0  0  0
 11 14  1  0  0  0  0
 14 15  1  0  0  0  0
 14 16  1  0  0  0  0
 14 17  1  0  0  0  0
M  END
> <VConfSearch Rank>
835

> <Conf_Id>
3

> <Delta U+W>
0.531

> <U+W>
-52.878

> <U>
10.067

> <W>
-62.945

> <W(PB)>
-64.982

> <W(SA)>
2.037

> <Valence>
2.779

> <Coulomb>
6.474

> <VdW>
0.815

> <VdW6>
-5.088

> <VdW12>
5.902

> <Bond>
0.078

> <Angle>
2.651

> <Pdih>
0.050

> <Idih>
0.000

> <Tether>
0.000

$$$$
VeraChem MOL file


 17 16  0  0  0  0  0  0  0  0999 V2000     
   20.0102   20.4344   19.3682 C   0  0  0  0  0  0  0  0  0  0  0  0
   19.1611   21.1191   18.8317 O   0  5  0  0  0  0  0  0  0  0  0  0
   20.8922   19.8702   18.7483 O   0  0  0  0  0  0  0  0  0  0  0  0
   19.9490   20.2981   20.8487 C   0  0  0  0  0  0  0  0  0  0  0  0
   19.1362   20.8278   21.3401 H   0  0  0  0  0  0  0  0  0  0  0  0
   20.8254   19.5674   21.5750 C   0  0  0  0  0  0  0  0  0  0  0  0
   21.6404   19.0305   21.0903 H   0  0  0  0  0  0  0  0  0  0  0  0
   20.7588   19.4283   23.0819 C   0  0  0  0  0  0  0  0  0  0  0  0
   20.1278   20.2163   23.5152 H   0  0  0  0  0  0  0  0  0  0  0  0
   21.7632   19.5770   23.5002 H   0  0  0  0  0  0  0  0  0  0  0  0
   20.2338   18.0436   23.5201 C   0  0  0  0  0  0  0  0  0  0  0  0
   20.8628   17.2547   23.0849 H   0  0  0  0  0  0  0  0  0  0  0  0
   20.3275   17.9535   24.6111 H   0  0  0  0  0  0  0  0  0  0  0  0
   18.7604   17.8135   23.1212 C   0  0  0  0  0  0  0  0  0  0  0  0
   18.6377   17.8322   22.0305 H   0  0  0  0  0  0  0  0  0  0  0  0
   18.4105   16.8378   23.4823 H   0  0  0  0  0  0  0  0  0  0  0  0
   18.1117   18.5872   23.5521 H   0  0  0  0  0  0  0  0  0  0  0  0
  1  2  1  0  0  0  0
  1  3  2  0  0  0  0
  1  4  1  0  0  0  0
  4  5  1  0  0  0  0
  4  6  2  0  0  0  0
  6  7  1  0  0  0  0
  6  8  1  0  0  0  0
  8  9  1  0  0  0  0
  8 10  1  0  0  0  0
  8 11  1  0  0  0  0
 11 12  1  0  0  0  0
 11 13  1  0  0  0  0
 11 14  1  0  0  0  0
 14 15  1  0  0  0  0
 14 16  1  0  0  0  0
 14 17  1  0  0  0  0
M  END
> <VConfSearch Rank>
836

> <Conf_Id>
45

> <Delta U+W>
0.562

> <U+W>
-52.846

> <U>
10.243

> <W>
-63.089

> <W(PB)>
-65.116

> <W(SA)>
2.026

> <Valence>
2.822

> <Coulomb>
6.637

> <VdW>
0.785

> <VdW6>
-5.216

> <VdW12>
6.001

> <Bond>
0.080

> <Angle>
2.678

> <Pdih>
0.064

> <Idih>
0.000

> <Tether>
0.000

$$$$
VeraChem MOL file


 17 16  0  0  0  0  0  0  0  0999 V2000     
   21.9082   20.7796   19.6889 C   0  0  0  0  0  0  0  0  0  0  0  0
   21.5871   21.6278   18.8795 O   0  5  0  0  0  0  0  0  0  0  0  0
   22.9880   20.2193   19.6656 O   0  0  0  0  0  0  0  0  0  0  0  0
   20.9212   20.4292   20.7459 C   0  0  0  0  0  0  0  0  0  0  0  0
   19.9763   20.9667   20.7098 H   0  0  0  0  0  0  0  0  0  0  0  0
   21.1432   19.5051   21.7081 C   0  0  0  0  0  0  0  0  0  0  0  0
   22.0854   18.9591   21.7521 H   0  0  0  0  0  0  0  0  0  0  0  0
   20.1331   19.1531   22.7781 C   0  0  0  0  0  0  0  0  0  0  0  0
   19.6087   20.0588   23.1120 H   0  0  0  0  0  0  0  0  0  0  0  0
   20.6540   18.7514   23.6577 H   0  0  0  0  0  0  0  0  0  0  0  0
   19.1103   18.1181   22.2667 C   0  0  0  0  0  0  0  0  0  0  0  0
   18.5853   18.5201   21.3890 H   0  0  0  0  0  0  0  0  0  0  0  0
   19.6371   17.2124   21.9352 H   0  0  0  0  0  0  0  0  0  0  0  0
   18.0827   17.7468   23.3546 C   0  0  0  0  0  0  0  0  0  0  0  0
   18.5791   17.3123   24.2322 H   0  0  0  0  0  0  0  0  0  0  0  0
   17.5200   18.6311   23.6817 H   0  0  0  0  0  0  0  0  0  0  0  0
   17.3640   17.0102   22.9725 H   0  0  0  0  0  0  0  0  0  0  0  0
  1  2  1  0  0  0  0
  1  3  2  0  0  0  0
  1  4  1  0  0  0  0
  4  5  1  0  0  0  0
  4  6  2  0  0  0  0
  6  7  1  0  0  0  0
  6  8  1  0  0  0  0
  8  9  1  0  0  0  0
  8 10  1  0  0  0  0
  8 11  1  0  0  0  0
 11 12  1  0  0  0  0
 11 13  1  0  0  0  0
 11 14  1  0  0  0  0
 14 15  1  0  0  0  0
 14 16  1  0  0  0  0
 14 17  1  0  0  0  0
M  END
> <VConfSearch Rank>
837

> <Conf_Id>
36

> <Delta U+W>
0.000

> <U+W>
-53.409

> <U>
9.048

> <W>
-62.457

> <W(PB)>
-64.540

> <W(SA)>
2.084

> <Valence>
2.652

> <Coulomb>
5.578

> <VdW>
0.818

> <VdW6>
-4.534

> <VdW12>
5.352

> <Bond>
0.063

> <Angle>
2.579

> <Pdih>
0.010

> <Idih>
0.000

> <Tether>
0.000

$$$$
VeraChem MOL file


 17 16  0  0  0  0  0  0  0  0999 V2000     
   20.8741   22.2482   21.0865 C   0  0  0  0  0  0  0  0  0  0  0  0
   22.0303   22.2111   20.7094 O   0  5  0  0  0  0  0  0  0  0  0  0
   20.2835   23.2884   21.3031 O   0  0  0  0  0  0  0  0  0  0  0  0
   20.1289   20.9777   21.2977 C   0  0  0  0  0  0  0  0  0  0  0  0
   19.1000   21.0814   21.6349 H   0  0  0  0  0  0  0  0  0  0  0  0
   20.6599   19.7502   21.0971 C   0  0  0  0  0  0  0  0  0  0  0  0
   21.6903   19.6347   20.7615 H   0  0  0  0  0  0  0  0  0  0  0  0
   19.8956   18.4628   21.3161 C   0  0  0  0  0  0  0  0  0  0  0  0
   20.3324   17.6662   20.6988 H   0  0  0  0  0  0  0  0  0  0  0  0
   18.8557   18.5821   20.9824 H   0  0  0  0  0  0  0  0  0  0  0  0
   19.9212   18.0394   22.7990 C   0  0  0  0  0  0  0  0  0  0  0  0
   20.9622   17.9187   23.1297 H   0  0  0  0  0  0  0  0  0  0  0  0
   19.4807   18.8336   23.4176 H   0  0  0  0  0  0  0  0  0  0  0  0
   19.1520   16.7229   23.0290 C   0  0  0  0  0  0  0  0  0  0  0  0
   19.5921   15.9036   22.4455 H   0  0  0  0  0  0  0  0  0  0  0  0
   19.1813   16.4380   24.0887 H   0  0  0  0  0  0  0  0  0  0  0  0
   18.0993   16.8265   22.7349 H   0  0  0  0  0  0  0  0  0  0  0  0
  1  2  1  0  0  0  0
  1  3  2  0  0  0  0
  1  4  1  0  0  0  0
  4  5  1  0  0  0  0
  4  6  2  0  0  0  0
  6  7  1  0  0  0  0
  6  8  1  0  0  0  0
  8  9  1  0  0  0  0
  8 10  1  0  0  0  0
  8 11  1  0  0  0  0
 11 12  1  0  0  0  0
 11 13  1  0  0  0  0
 11 14  1  0  0  0  0
 14 15  1  0  0  0  0
 14 16  1  0  0  0  0
 14 17  1  0  0  0  0
M  END
> <VConfSearch Rank>
838

> <Conf_Id>
1

> <Delta U+W>
0.030

> <U+W>
-53.378

> <U>
9.048

> <W>
-62.426

> <W(PB)>
-64.506

> <W(SA)>
2.080

> <Valence>
2.652

> <Coulomb>
5.578

> <VdW>
0.818

> <VdW6>
-4.535

> <VdW12>
5.352

> <Bond>
0.063

> <Angle>
2.579

> <Pdih>
0.010

> <Idih>
0.000

> <Tether>
0.000

$$$$
VeraChem MOL file


 17 16  0  0  0  0  0  0  0  0999 V2000     
   17.3989   20.6895   22.3387 C   0  0  0  0  0  0  0  0  0  0  0  0
   17.6970   21.7059   21.7400 O   0  5  0  0  0  0  0  0  0  0  0  0
   16.2512   20.3984   22.6141 O   0  0  0  0  0  0  0  0  0  0  0  0
   18.4684   19.7473   22.7660 C   0  0  0  0  0  0  0  0  0  0  0  0
   18.1341   18.8591   23.2973 H   0  0  0  0  0  0  0  0  0  0  0  0
   19.7850   19.9428   22.5265 C   0  0  0  0  0  0  0  0  0  0  0  0
   20.1306   20.8275   21.9922 H   0  0  0  0  0  0  0  0  0  0  0  0
   20.8676   18.9774   22.9612 C   0  0  0  0  0  0  0  0  0  0  0  0
   20.6437   18.6025   23.9691 H   0  0  0  0  0  0  0  0  0  0  0  0
   21.8284   19.5040   23.0368 H   0  0  0  0  0  0  0  0  0  0  0  0
   21.0096   17.7802   21.9957 C   0  0  0  0  0  0  0  0  0  0  0  0
   21.7304   17.0646   22.4145 H   0  0  0  0  0  0  0  0  0  0  0  0
   20.0499   17.2505   21.9189 H   0  0  0  0  0  0  0  0  0  0  0  0
   21.4817   18.2072   20.5895 C   0  0  0  0  0  0  0  0  0  0  0  0
   22.4466   18.7283   20.6406 H   0  0  0  0  0  0  0  0  0  0  0  0
   21.6040   17.3303   19.9407 H   0  0  0  0  0  0  0  0  0  0  0  0
   20.7544   18.8783   20.1143 H   0  0  0  0  0  0  0  0  0  0  0  0
  1  2  1  0  0  0  0
  1  3  2  0  0  0  0
  1  4  1  0  0  0  0
  4  5  1  0  0  0  0
  4  6  2  0  0  0  0
  6  7  1  0  0  0  0
  6  8  1  0  0  0  0
  8  9  1  0  0  0  0
  8 10  1  0  0  0  0
  8 11  1  0  0  0  0
 11 12  1  0  0  0  0
 11 13  1  0  0  0  0
 11 14  1  0  0  0  0
 14 15  1  0  0  0  0
 14 16  1  0  0  0  0
 14 17  1  0  0  0  0
M  END
> <VConfSearch Rank>
839

> <Conf_Id>
3

> <Delta U+W>
0.531

> <U+W>
-52.878

> <U>
10.067

> <W>
-62.945

> <W(PB)>
-64.982

> <W(SA)>
2.037

> <Valence>
2.779

> <Coulomb>
6.474

> <VdW>
0.815

> <VdW6>
-5.088

> <VdW12>
5.902

> <Bond>
0.078

> <Angle>
2.651

> <Pdih>
0.050

> <Idih>
0.000

> <Tether>
0.000

$$$$
VeraChem MOL file


 17 16  0  0  0  0  0  0  0  0999 V2000     
   19.1993   18.9281   24.9893 C   0  0  0  0  0  0  0  0  0  0  0  0
   19.4348   19.6976   25.9004 O   0  5  0  0  0  0  0  0  0  0  0  0
   18.9042   17.7616   25.1698 O   0  0  0  0  0  0  0  0  0  0  0  0
   19.2787   19.4605   23.6021 C   0  0  0  0  0  0  0  0  0  0  0  0
   19.5473   20.5105   23.5121 H   0  0  0  0  0  0  0  0  0  0  0  0
   19.0446   18.7185   22.4956 C   0  0  0  0  0  0  0  0  0  0  0  0
   18.7785   17.6649   22.5766 H   0  0  0  0  0  0  0  0  0  0  0  0
   19.1289   19.2627   21.0846 C   0  0  0  0  0  0  0  0  0  0  0  0
   19.0950   20.3607   21.0912 H   0  0  0  0  0  0  0  0  0  0  0  0
   18.2463   18.9334   20.5202 H   0  0  0  0  0  0  0  0  0  0  0  0
   20.4004   18.7872   20.3480 C   0  0  0  0  0  0  0  0  0  0  0  0
   20.4364   17.6890   20.3433 H   0  0  0  0  0  0  0  0  0  0  0  0
   20.3455   19.1039   19.2974 H   0  0  0  0  0  0  0  0  0  0  0  0
   21.6947   19.3476   20.9753 C   0  0  0  0  0  0  0  0  0  0  0  0
   21.8174   18.9987   22.0088 H   0  0  0  0  0  0  0  0  0  0  0  0
   22.5733   19.0215   20.4037 H   0  0  0  0  0  0  0  0  0  0  0  0
   21.6837   20.4453   20.9834 H   0  0  0  0  0  0  0  0  0  0  0  0
  1  2  1  0  0  0  0
  1  3  2  0  0  0  0
  1  4  1  0  0  0  0
  4  5  1  0  0  0  0
  4  6  2  0  0  0  0
  6  7  1  0  0  0  0
  6  8  1  0  0  0  0
  8  9  1  0  0  0  0
  8 10  1  0  0  0  0
  8 11  1  0  0  0  0
 11 12  1  0  0  0  0
 11 13  1  0  0  0  0
 11 14  1  0  0  0  0
 14 15  1  0  0  0  0
 14 16  1  0  0  0  0
 14 17  1  0  0  0  0
M  END
> <VConfSearch Rank>
840

> <Conf_Id>
45

> <Delta U+W>
0.562

> <U+W>
-52.846

> <U>
10.243

> <W>
-63.089

> <W(PB)>
-65.116

> <W(SA)>
2.026

> <Valence>
2.822

> <Coulomb>
6.637

> <VdW>
0.785

> <VdW6>
-5.216

> <VdW12>
6.001

> <Bond>
0.080

> <Angle>
2.678

> <Pdih>
0.064

> <Idih>
0.000

> <Tether>
0.000

$$$$
VeraChem MOL file


 17 16  0  0  0  0  0  0  0  0999 V2000     
   22.7605   18.3329   20.1517 C   0  0  0  0  0  0  0  0  0  0  0  0
   22.9763   17.3649   19.4488 O   0  5  0  0  0  0  0  0  0  0  0  0
   23.6375   19.0937   20.5157 O   0  0  0  0  0  0  0  0  0  0  0  0
   21.3541   18.5779   20.5715 C   0  0  0  0  0  0  0  0  0  0  0  0
   20.6197   17.8609   20.2119 H   0  0  0  0  0  0  0  0  0  0  0  0
   20.9701   19.6133   21.3523 C   0  0  0  0  0  0  0  0  0  0  0  0
   21.6980   20.3362   21.7201 H   0  0  0  0  0  0  0  0  0  0  0  0
   19.5379   19.8541   21.7765 C   0  0  0  0  0  0  0  0  0  0  0  0
   18.8558   19.6144   20.9493 H   0  0  0  0  0  0  0  0  0  0  0  0
   19.3949   20.9198   22.0005 H   0  0  0  0  0  0  0  0  0  0  0  0
   19.1696   19.0123   23.0153 C   0  0  0  0  0  0  0  0  0  0  0  0
   19.3081   17.9455   22.7915 H   0  0  0  0  0  0  0  0  0  0  0  0
   19.8518   19.2553   23.8419 H   0  0  0  0  0  0  0  0  0  0  0  0
   17.7139   19.2593   23.4598 C   0  0  0  0  0  0  0  0  0  0  0  0
   17.5561   20.3140   23.7205 H   0  0  0  0  0  0  0  0  0  0  0  0
   17.0089   18.9943   22.6609 H   0  0  0  0  0  0  0  0  0  0  0  0
   17.4705   18.6522   24.3415 H   0  0  0  0  0  0  0  0  0  0  0  0
  1  2  1  0  0  0  0
  1  3  2  0  0  0  0
  1  4  1  0  0  0  0
  4  5  1  0  0  0  0
  4  6  2  0  0  0  0
  6  7  1  0  0  0  0
  6  8  1  0  0  0  0
  8  9  1  0  0  0  0
  8 10  1  0  0  0  0
  8 11  1  0  0  0  0
 11 12  1  0  0  0  0
 11 13  1  0  0  0  0
 11 14  1  0  0  0  0
 14 15  1  0  0  0  0
 14 16  1  0  0  0  0
 14 17  1  0  0  0  0
M  END
> <VConfSearch Rank>
841

> <Conf_Id>
36

> <Delta U+W>
0.000

> <U+W>
-53.409

> <U>
9.048

> <W>
-62.457

> <W(PB)>
-64.540

> <W(SA)>
2.084

> <Valence>
2.652

> <Coulomb>
5.578

> <VdW>
0.818

> <VdW6>
-4.534

> <VdW12>
5.352

> <Bond>
0.063

> <Angle>
2.579

> <Pdih>
0.010

> <Idih>
0.000

> <Tether>
0.000

$$$$
VeraChem MOL file


 17 16  0  0  0  0  0  0  0  0999 V2000     
   20.2149   15.8605   22.8549 C   0  0  0  0  0  0  0  0  0  0  0  0
   21.3637   15.6660   23.2054 O   0  5  0  0  0  0  0  0  0  0  0  0
   19.4124   14.9615   22.6952 O   0  0  0  0  0  0  0  0  0  0  0  0
   19.7479   17.2512   22.6061 C   0  0  0  0  0  0  0  0  0  0  0  0
   18.7107   17.3552   22.2957 H   0  0  0  0  0  0  0  0  0  0  0  0
   20.5311   18.3452   22.7432 C   0  0  0  0  0  0  0  0  0  0  0  0
   21.5723   18.2523   23.0516 H   0  0  0  0  0  0  0  0  0  0  0  0
   20.0488   19.7561   22.4864 C   0  0  0  0  0  0  0  0  0  0  0  0
   20.6617   20.4644   23.0600 H   0  0  0  0  0  0  0  0  0  0  0  0
   19.0176   19.8719   22.8469 H   0  0  0  0  0  0  0  0  0  0  0  0
   20.1188   20.1096   20.9867 C   0  0  0  0  0  0  0  0  0  0  0  0
   21.1515   19.9951   20.6290 H   0  0  0  0  0  0  0  0  0  0  0  0
   19.5028   19.4043   20.4118 H   0  0  0  0  0  0  0  0  0  0  0  0
   19.6375   21.5496   20.7177 C   0  0  0  0  0  0  0  0  0  0  0  0
   20.2574   22.2783   21.2564 H   0  0  0  0  0  0  0  0  0  0  0  0
   19.6946   21.7827   19.6464 H   0  0  0  0  0  0  0  0  0  0  0  0
   18.5958   21.6820   21.0383 H   0  0  0  0  0  0  0  0  0  0  0  0
  1  2  1  0  0  0  0
  1  3  2  0  0  0  0
  1  4  1  0  0  0  0
  4  5  1  0  0  0  0
  4  6  2  0  0  0  0
  6  7  1  0  0  0  0
  6  8  1  0  0  0  0
  8  9  1  0  0  0  0
  8 10  1  0  0  0  0
  8 11  1  0  0  0  0
 11 12  1  0  0  0  0
 11 13  1  0  0  0  0
 11 14  1  0  0  0  0
 14 15  1  0  0  0  0
 14 16  1  0  0  0  0
 14 17  1  0  0  0  0
M  END
> <VConfSearch Rank>
842

> <Conf_Id>
1

> <Delta U+W>
0.030

> <U+W>
-53.378

> <U>
9.048

> <W>
-62.426

> <W(PB)>
-64.506

> <W(SA)>
2.080

> <Valence>
2.652

> <Coulomb>
5.578

> <VdW>
0.818

> <VdW6>
-4.535

> <VdW12>
5.352

> <Bond>
0.063

> <Angle>
2.579

> <Pdih>
0.010

> <Idih>
0.000

> <Tether>
0.000

$$$$
VeraChem MOL file


 17 16  0  0  0  0  0  0  0  0999 V2000     
   20.0963   17.9058   24.8958 C   0  0  0  0  0  0  0  0  0  0  0  0
   18.9357   17.5635   25.0233 O   0  5  0  0  0  0  0  0  0  0  0  0
   20.9841   17.5142   25.6281 O   0  0  0  0  0  0  0  0  0  0  0  0
   20.4698   18.8470   23.8054 C   0  0  0  0  0  0  0  0  0  0  0  0
   21.5228   19.1128   23.7478 H   0  0  0  0  0  0  0  0  0  0  0  0
   19.5878   19.3606   22.9181 C   0  0  0  0  0  0  0  0  0  0  0  0
   18.5311   19.0982   22.9647 H   0  0  0  0  0  0  0  0  0  0  0  0
   19.9760   20.3150   21.8085 C   0  0  0  0  0  0  0  0  0  0  0  0
   20.7093   21.0403   22.1863 H   0  0  0  0  0  0  0  0  0  0  0  0
   19.1003   20.8996   21.4961 H   0  0  0  0  0  0  0  0  0  0  0  0
   20.5715   19.5833   20.5855 C   0  0  0  0  0  0  0  0  0  0  0  0
   20.9300   20.3276   19.8612 H   0  0  0  0  0  0  0  0  0  0  0  0
   21.4488   18.9984   20.8948 H   0  0  0  0  0  0  0  0  0  0  0  0
   19.5476   18.6583   19.8935 C   0  0  0  0  0  0  0  0  0  0  0  0
   18.6666   19.2245   19.5642 H   0  0  0  0  0  0  0  0  0  0  0  0
   19.9933   18.1814   19.0110 H   0  0  0  0  0  0  0  0  0  0  0  0
   19.2106   17.8633   20.5714 H   0  0  0  0  0  0  0  0  0  0  0  0
  1  2  1  0  0  0  0
  1  3  2  0  0  0  0
  1  4  1  0  0  0  0
  4  5  1  0  0  0  0
  4  6  2  0  0  0  0
  6  7  1  0  0  0  0
  6  8  1  0  0  0  0
  8  9  1  0  0  0  0
  8 10  1  0  0  0  0
  8 11  1  0  0  0  0
 11 12  1  0  0  0  0
 11 13  1  0  0  0  0
 11 14  1  0  0  0  0
 14 15  1  0  0  0  0
 14 16  1  0  0  0  0
 14 17  1  0  0  0  0
M  END
> <VConfSearch Rank>
843

> <Conf_Id>
3

> <Delta U+W>
0.531

> <U+W>
-52.878

> <U>
10.067

> <W>
-62.945

> <W(PB)>
-64.982

> <W(SA)>
2.037

> <Valence>
2.779

> <Coulomb>
6.474

> <VdW>
0.815

> <VdW6>
-5.088

> <VdW12>
5.902

> <Bond>
0.078

> <Angle>
2.651

> <Pdih>
0.050

> <Idih>
0.000

> <Tether>
0.000

$$$$
VeraChem MOL file


 17 16  0  0  0  0  0  0  0  0999 V2000     
   21.6497   20.4996   19.9885 C   0  0  0  0  0  0  0  0  0  0  0  0
   22.0854   21.6345   19.9784 O   0  5  0  0  0  0  0  0  0  0  0  0
   21.5169   19.8343   18.9785 O   0  0  0  0  0  0  0  0  0  0  0  0
   21.2725   19.9199   21.3060 C   0  0  0  0  0  0  0  0  0  0  0  0
   21.4165   20.5678   22.1675 H   0  0  0  0  0  0  0  0  0  0  0  0
   20.7737   18.6728   21.4655 C   0  0  0  0  0  0  0  0  0  0  0  0
   20.6228   18.0184   20.6073 H   0  0  0  0  0  0  0  0  0  0  0  0
   20.3880   18.0864   22.8078 C   0  0  0  0  0  0  0  0  0  0  0  0
   20.8419   18.6622   23.6258 H   0  0  0  0  0  0  0  0  0  0  0  0
   20.7973   17.0704   22.8860 H   0  0  0  0  0  0  0  0  0  0  0  0
   18.8571   18.0260   23.0030 C   0  0  0  0  0  0  0  0  0  0  0  0
   18.4020   17.4524   22.1836 H   0  0  0  0  0  0  0  0  0  0  0  0
   18.6352   17.4793   23.9298 H   0  0  0  0  0  0  0  0  0  0  0  0
   18.2123   19.4265   23.0786 C   0  0  0  0  0  0  0  0  0  0  0  0
   18.3581   19.9808   22.1424 H   0  0  0  0  0  0  0  0  0  0  0  0
   17.1322   19.3451   23.2564 H   0  0  0  0  0  0  0  0  0  0  0  0
   18.6474   20.0153   23.8966 H   0  0  0  0  0  0  0  0  0  0  0  0
  1  2  1  0  0  0  0
  1  3  2  0  0  0  0
  1  4  1  0  0  0  0
  4  5  1  0  0  0  0
  4  6  2  0  0  0  0
  6  7  1  0  0  0  0
  6  8  1  0  0  0  0
  8  9  1  0  0  0  0
  8 10  1  0  0  0  0
  8 11  1  0  0  0  0
 11 12  1  0  0  0  0
 11 13  1  0  0  0  0
 11 14  1  0  0  0  0
 14 15  1  0  0  0  0
 14 16  1  0  0  0  0
 14 17  1  0  0  0  0
M  END
> <VConfSearch Rank>
844

> <Conf_Id>
45

> <Delta U+W>
0.562

> <U+W>
-52.846

> <U>
10.243

> <W>
-63.089

> <W(PB)>
-65.116

> <W(SA)>
2.026

> <Valence>
2.822

> <Coulomb>
6.637

> <VdW>
0.785

> <VdW6>
-5.216

> <VdW12>
6.001

> <Bond>
0.080

> <Angle>
2.678

> <Pdih>
0.064

> <Idih>
0.000

> <Tether>
0.000

$$$$
VeraChem MOL file


 17 16  0  0  0  0  0  0  0  0999 V2000     
   21.3593   16.0522   22.2518 C   0  0  0  0  0  0  0  0  0  0  0  0
   21.7613   15.4954   23.2548 O   0  5  0  0  0  0  0  0  0  0  0  0
   21.6026   15.6491   21.1299 O   0  0  0  0  0  0  0  0  0  0  0  0
   20.5342   17.2777   22.4295 C   0  0  0  0  0  0  0  0  0  0  0  0
   20.3542   17.5836   23.4576 H   0  0  0  0  0  0  0  0  0  0  0  0
   20.0230   17.9973   21.4049 C   0  0  0  0  0  0  0  0  0  0  0  0
   20.1992   17.7011   20.3710 H   0  0  0  0  0  0  0  0  0  0  0  0
   19.1866   19.2438   21.5942 C   0  0  0  0  0  0  0  0  0  0  0  0
   18.5188   19.1205   22.4577 H   0  0  0  0  0  0  0  0  0  0  0  0
   18.5406   19.3899   20.7180 H   0  0  0  0  0  0  0  0  0  0  0  0
   20.0730   20.4900   21.7955 C   0  0  0  0  0  0  0  0  0  0  0  0
   20.7170   20.3471   22.6744 H   0  0  0  0  0  0  0  0  0  0  0  0
   20.7385   20.6124   20.9297 H   0  0  0  0  0  0  0  0  0  0  0  0
   19.2280   21.7665   21.9799 C   0  0  0  0  0  0  0  0  0  0  0  0
   18.5971   21.9506   21.1004 H   0  0  0  0  0  0  0  0  0  0  0  0
   18.5752   21.6820   22.8586 H   0  0  0  0  0  0  0  0  0  0  0  0
   19.8753   22.6417   22.1217 H   0  0  0  0  0  0  0  0  0  0  0  0
  1  2  1  0  0  0  0
  1  3  2  0  0  0  0
  1  4  1  0  0  0  0
  4  5  1  0  0  0  0
  4  6  2  0  0  0  0
  6  7  1  0  0  0  0
  6  8  1  0  0  0  0
  8  9  1  0  0  0  0
  8 10  1  0  0  0  0
  8 11  1  0  0  0  0
 11 12  1  0  0  0  0
 11 13  1  0  0  0  0
 11 14  1  0  0  0  0
 14 15  1  0  0  0  0
 14 16  1  0  0  0  0
 14 17  1  0  0  0  0
M  END
> <VConfSearch Rank>
845

> <Conf_Id>
36

> <Delta U+W>
0.000

> <U+W>
-53.409

> <U>
9.048

> <W>
-62.457

> <W(PB)>
-64.540

> <W(SA)>
2.084

> <Valence>
2.652

> <Coulomb>
5.578

> <VdW>
0.818

> <VdW6>
-4.534

> <VdW12>
5.352

> <Bond>
0.063

> <Angle>
2.579

> <Pdih>
0.010

> <Idih>
0.000

> <Tether>
0.000

$$$$
VeraChem MOL file


 17 16  0  0  0  0  0  0  0  0999 V2000     
   22.6005   19.0010   19.7504 C   0  0  0  0  0  0  0  0  0  0  0  0
   22.9273   17.8341   19.6411 O   0  5  0  0  0  0  0  0  0  0  0  0
   23.2651   19.9169   19.3065 O   0  0  0  0  0  0  0  0  0  0  0  0
   21.3352   19.3471   20.4528 C   0  0  0  0  0  0  0  0  0  0  0  0
   21.1019   20.4076   20.5154 H   0  0  0  0  0  0  0  0  0  0  0  0
   20.5000   18.4324   20.9958 C   0  0  0  0  0  0  0  0  0  0  0  0
   20.7251   17.3675   20.9408 H   0  0  0  0  0  0  0  0  0  0  0  0
   19.2159   18.7930   21.7102 C   0  0  0  0  0  0  0  0  0  0  0  0
   18.5198   17.9446   21.6662 H   0  0  0  0  0  0  0  0  0  0  0  0
   18.7223   19.6292   21.1964 H   0  0  0  0  0  0  0  0  0  0  0  0
   19.4787   19.1692   23.1828 C   0  0  0  0  0  0  0  0  0  0  0  0
   19.9704   18.3306   23.6951 H   0  0  0  0  0  0  0  0  0  0  0  0
   20.1719   20.0206   23.2285 H   0  0  0  0  0  0  0  0  0  0  0  0
   18.1735   19.5292   23.9206 C   0  0  0  0  0  0  0  0  0  0  0  0
   17.4740   18.6830   23.9173 H   0  0  0  0  0  0  0  0  0  0  0  0
   18.3804   19.7937   24.9657 H   0  0  0  0  0  0  0  0  0  0  0  0
   17.6775   20.3860   23.4460 H   0  0  0  0  0  0  0  0  0  0  0  0
  1  2  1  0  0  0  0
  1  3  2  0  0  0  0
  1  4  1  0  0  0  0
  4  5  1  0  0  0  0
  4  6  2  0  0  0  0
  6  7  1  0  0  0  0
  6  8  1  0  0  0  0
  8  9  1  0  0  0  0
  8 10  1  0  0  0  0
  8 11  1  0  0  0  0
 11 12  1  0  0  0  0
 11 13  1  0  0  0  0
 11 14  1  0  0  0  0
 14 15  1  0  0  0  0
 14 16  1  0  0  0  0
 14 17  1  0  0  0  0
M  END
> <VConfSearch Rank>
846

> <Conf_Id>
1

> <Delta U+W>
0.030

> <U+W>
-53.378

> <U>
9.048

> <W>
-62.426

> <W(PB)>
-64.506

> <W(SA)>
2.080

> <Valence>
2.652

> <Coulomb>
5.578

> <VdW>
0.818

> <VdW6>
-4.535

> <VdW12>
5.352

> <Bond>
0.063

> <Angle>
2.579

> <Pdih>
0.010

> <Idih>
0.000

> <Tether>
0.000

$$$$
VeraChem MOL file


 17 16  0  0  0  0  0  0  0  0999 V2000     
   21.0855   17.6457   19.5449 C   0  0  0  0  0  0  0  0  0  0  0  0
   22.0526   18.3385   19.2892 O   0  5  0  0  0  0  0  0  0  0  0  0
   20.9202   16.5408   19.0655 O   0  0  0  0  0  0  0  0  0  0  0  0
   20.0444   18.1523   20.4794 C   0  0  0  0  0  0  0  0  0  0  0  0
   19.2064   17.4841   20.6639 H   0  0  0  0  0  0  0  0  0  0  0  0
   20.0992   19.3599   21.0858 C   0  0  0  0  0  0  0  0  0  0  0  0
   20.9359   20.0359   20.9107 H   0  0  0  0  0  0  0  0  0  0  0  0
   19.0375   19.8672   22.0389 C   0  0  0  0  0  0  0  0  0  0  0  0
   18.0426   19.5984   21.6589 H   0  0  0  0  0  0  0  0  0  0  0  0
   19.0645   20.9645   22.0773 H   0  0  0  0  0  0  0  0  0  0  0  0
   19.2063   19.2965   23.4642 C   0  0  0  0  0  0  0  0  0  0  0  0
   18.3536   19.6124   24.0809 H   0  0  0  0  0  0  0  0  0  0  0  0
   19.1785   18.1986   23.4292 H   0  0  0  0  0  0  0  0  0  0  0  0
   20.5153   19.7623   24.1367 C   0  0  0  0  0  0  0  0  0  0  0  0
   20.5591   20.8577   24.1940 H   0  0  0  0  0  0  0  0  0  0  0  0
   20.5865   19.3663   25.1580 H   0  0  0  0  0  0  0  0  0  0  0  0
   21.3935   19.4127   23.5784 H   0  0  0  0  0  0  0  0  0  0  0  0
  1  2  1  0  0  0  0
  1  3  2  0  0  0  0
  1  4  1  0  0  0  0
  4  5  1  0  0  0  0
  4  6  2  0  0  0  0
  6  7  1  0  0  0  0
  6  8  1  0  0  0  0
  8  9  1  0  0  0  0
  8 10  1  0  0  0  0
  8 11  1  0  0  0  0
 11 12  1  0  0  0  0
 11 13  1  0  0  0  0
 11 14  1  0  0  0  0
 14 15  1  0  0  0  0
 14 16  1  0  0  0  0
 14 17  1  0  0  0  0
M  END
> <VConfSearch Rank>
847

> <Conf_Id>
3

> <Delta U+W>
0.531

> <U+W>
-52.878

> <U>
10.067

> <W>
-62.945

> <W(PB)>
-64.982

> <W(SA)>
2.037

> <Valence>
2.779

> <Coulomb>
6.474

> <VdW>
0.815

> <VdW6>
-5.088

> <VdW12>
5.902

> <Bond>
0.078

> <Angle>
2.651

> <Pdih>
0.050

> <Idih>
0.000

> <Tether>
0.000

$$$$
VeraChem MOL file


 17 16  0  0  0  0  0  0  0  0999 V2000     
   21.2405   17.2708   24.1205 C   0  0  0  0  0  0  0  0  0  0  0  0
   20.9695   17.1181   25.2957 O   0  5  0  0  0  0  0  0  0  0  0  0
   22.3172   16.9616   23.6455 O   0  0  0  0  0  0  0  0  0  0  0  0
   20.1923   17.8606   23.2444 C   0  0  0  0  0  0  0  0  0  0  0  0
   19.2541   18.1139   23.7326 H   0  0  0  0  0  0  0  0  0  0  0  0
   20.3568   18.0886   21.9213 C   0  0  0  0  0  0  0  0  0  0  0  0
   21.2948   17.8412   21.4250 H   0  0  0  0  0  0  0  0  0  0  0  0
   19.2887   18.6918   21.0326 C   0  0  0  0  0  0  0  0  0  0  0  0
   18.3036   18.6275   21.5143 H   0  0  0  0  0  0  0  0  0  0  0  0
   19.2160   18.1020   20.1090 H   0  0  0  0  0  0  0  0  0  0  0  0
   19.5922   20.1610   20.6660 C   0  0  0  0  0  0  0  0  0  0  0  0
   20.5787   20.2266   20.1864 H   0  0  0  0  0  0  0  0  0  0  0  0
   18.8588   20.5039   19.9232 H   0  0  0  0  0  0  0  0  0  0  0  0
   19.5451   21.1004   21.8899 C   0  0  0  0  0  0  0  0  0  0  0  0
   20.3102   20.8276   22.6284 H   0  0  0  0  0  0  0  0  0  0  0  0
   19.7263   22.1396   21.5862 H   0  0  0  0  0  0  0  0  0  0  0  0
   18.5642   21.0566   22.3809 H   0  0  0  0  0  0  0  0  0  0  0  0
  1  2  1  0  0  0  0
  1  3  2  0  0  0  0
  1  4  1  0  0  0  0
  4  5  1  0  0  0  0
  4  6  2  0  0  0  0
  6  7  1  0  0  0  0
  6  8  1  0  0  0  0
  8  9  1  0  0  0  0
  8 10  1  0  0  0  0
  8 11  1  0  0  0  0
 11 12  1  0  0  0  0
 11 13  1  0  0  0  0
 11 14  1  0  0  0  0
 14 15  1  0  0  0  0
 14 16  1  0  0  0  0
 14 17  1  0  0  0  0
M  END
> <VConfSearch Rank>
848

> <Conf_Id>
45

> <Delta U+W>
0.562

> <U+W>
-52.846

> <U>
10.243

> <W>
-63.089

> <W(PB)>
-65.116

> <W(SA)>
2.026

> <Valence>
2.822

> <Coulomb>
6.637

> <VdW>
0.785

> <VdW6>
-5.216

> <VdW12>
6.001

> <Bond>
0.080

> <Angle>
2.678

> <Pdih>
0.064

> <Idih>
0.000

> <Tether>
0.000

$$$$
VeraChem MOL file


 17 16  0  0  0  0  0  0  0  0999 V2000     
   21.5434   17.2752   24.2757 C   0  0  0  0  0  0  0  0  0  0  0  0
   22.6567   17.4061   24.7459 O   0  5  0  0  0  0  0  0  0  0  0  0
   20.8696   16.2757   24.4414 O   0  0  0  0  0  0  0  0  0  0  0  0
   21.0019   18.4007   23.4668 C   0  0  0  0  0  0  0  0  0  0  0  0
   21.6547   19.2637   23.3577 H   0  0  0  0  0  0  0  0  0  0  0  0
   19.7814   18.3914   22.8844 C   0  0  0  0  0  0  0  0  0  0  0  0
   19.1202   17.5309   22.9853 H   0  0  0  0  0  0  0  0  0  0  0  0
   19.2391   19.5395   22.0615 C   0  0  0  0  0  0  0  0  0  0  0  0
   19.5349   20.4969   22.5117 H   0  0  0  0  0  0  0  0  0  0  0  0
   18.1411   19.5144   22.0738 H   0  0  0  0  0  0  0  0  0  0  0  0
   19.7406   19.4725   20.6044 C   0  0  0  0  0  0  0  0  0  0  0  0
   20.8390   19.5017   20.5901 H   0  0  0  0  0  0  0  0  0  0  0  0
   19.4418   18.5149   20.1556 H   0  0  0  0  0  0  0  0  0  0  0  0
   19.1846   20.6342   19.7565 C   0  0  0  0  0  0  0  0  0  0  0  0
   18.0873   20.6097   19.7278 H   0  0  0  0  0  0  0  0  0  0  0  0
   19.4955   21.6039   20.1669 H   0  0  0  0  0  0  0  0  0  0  0  0
   19.5520   20.5697   18.7240 H   0  0  0  0  0  0  0  0  0  0  0  0
  1  2  1  0  0  0  0
  1  3  2  0  0  0  0
  1  4  1  0  0  0  0
  4  5  1  0  0  0  0
  4  6  2  0  0  0  0
  6  7  1  0  0  0  0
  6  8  1  0  0  0  0
  8  9  1  0  0  0  0
  8 10  1  0  0  0  0
  8 11  1  0  0  0  0
 11 12  1  0  0  0  0
 11 13  1  0  0  0  0
 11 14  1  0  0  0  0
 14 15  1  0  0  0  0
 14 16  1  0  0  0  0
 14 17  1  0  0  0  0
M  END
> <VConfSearch Rank>
849

> <Conf_Id>
36

> <Delta U+W>
0.000

> <U+W>
-53.409

> <U>
9.048

> <W>
-62.457

> <W(PB)>
-64.540

> <W(SA)>
2.084

> <Valence>
2.652

> <Coulomb>
5.578

> <VdW>
0.818

> <VdW6>
-4.534

> <VdW12>
5.352

> <Bond>
0.063

> <Angle>
2.579

> <Pdih>
0.010

> <Idih>
0.000

> <Tether>
0.000

$$$$
VeraChem MOL file


 17 16  0  0  0  0  0  0  0  0999 V2000     
   22.2092   21.6236   21.5180 C   0  0  0  0  0  0  0  0  0  0  0  0
   22.8735   21.6765   22.5360 O   0  5  0  0  0  0  0  0  0  0  0  0
   22.2419   22.4871   20.6630 O   0  0  0  0  0  0  0  0  0  0  0  0
   21.3109   20.4602   21.2863 C   0  0  0  0  0  0  0  0  0  0  0  0
   20.7456   20.4747   20.3573 H   0  0  0  0  0  0  0  0  0  0  0  0
   21.1742   19.4295   22.1512 C   0  0  0  0  0  0  0  0  0  0  0  0
   21.7341   19.4059   23.0859 H   0  0  0  0  0  0  0  0  0  0  0  0
   20.2569   18.2509   21.9087 C   0  0  0  0  0  0  0  0  0  0  0  0
   20.6209   17.3799   22.4702 H   0  0  0  0  0  0  0  0  0  0  0  0
   20.2792   17.9698   20.8470 H   0  0  0  0  0  0  0  0  0  0  0  0
   18.8085   18.5696   22.3325 C   0  0  0  0  0  0  0  0  0  0  0  0
   18.7884   18.8483   23.3952 H   0  0  0  0  0  0  0  0  0  0  0  0
   18.4413   19.4384   21.7686 H   0  0  0  0  0  0  0  0  0  0  0  0
   17.8689   17.3699   22.0971 C   0  0  0  0  0  0  0  0  0  0  0  0
   18.1956   16.4955   22.6751 H   0  0  0  0  0  0  0  0  0  0  0  0
   16.8439   17.6154   22.4042 H   0  0  0  0  0  0  0  0  0  0  0  0
   17.8468   17.0906   21.0355 H   0  0  0  0  0  0  0  0  0  0  0  0
  1  2  1  0  0  0  0
  1  3  2  0  0  0  0
  1  4  1  0  0  0  0
  4  5  1  0  0  0  0
  4  6  2  0  0  0  0
  6  7  1  0  0  0  0
  6  8  1  0  0  0  0
  8  9  1  0  0  0  0
  8 10  1  0  0  0  0
  8 11  1  0  0  0  0
 11 12  1  0  0  0  0
 11 13  1  0  0  0  0
 11 14  1  0  0  0  0
 14 15  1  0  0  0  0
 14 16  1  0  0  0  0
 14 17  1  0  0  0  0
M  END
> <VConfSearch Rank>
850

> <Conf_Id>
1

> <Delta U+W>
0.030

> <U+W>
-53.378

> <U>
9.048

> <W>
-62.426

> <W(PB)>
-64.506

> <W(SA)>
2.080

> <Valence>
2.652

> <Coulomb>
5.578

> <VdW>
0.818

> <VdW6>
-4.535

> <VdW12>
5.352

> <Bond>
0.063

> <Angle>
2.579

> <Pdih>
0.010

> <Idih>
0.000

> <Tether>
0.000

$$$$
VeraChem MOL file


 17 16  0  0  0  0  0  0  0  0999 V2000     
   17.6185   19.5558   23.9293 C   0  0  0  0  0  0  0  0  0  0  0  0
   17.0364   20.4376   23.3261 O   0  5  0  0  0  0  0  0  0  0  0  0
   17.0990   18.9116   24.8198 O   0  0  0  0  0  0  0  0  0  0  0  0
   19.0297   19.2356   23.5827 C   0  0  0  0  0  0  0  0  0  0  0  0
   19.4912   18.4381   24.1604 H   0  0  0  0  0  0  0  0  0  0  0  0
   19.7304   19.8692   22.6150 C   0  0  0  0  0  0  0  0  0  0  0  0
   19.2767   20.6674   22.0279 H   0  0  0  0  0  0  0  0  0  0  0  0
   21.1654   19.5352   22.2652 C   0  0  0  0  0  0  0  0  0  0  0  0
   21.7351   19.3489   23.1856 H   0  0  0  0  0  0  0  0  0  0  0  0
   21.6413   20.3978   21.7798 H   0  0  0  0  0  0  0  0  0  0  0  0
   21.2734   18.3000   21.3442 C   0  0  0  0  0  0  0  0  0  0  0  0
   22.3333   18.0429   21.2110 H   0  0  0  0  0  0  0  0  0  0  0  0
   20.7991   17.4348   21.8278 H   0  0  0  0  0  0  0  0  0  0  0  0
   20.6339   18.5369   19.9595 C   0  0  0  0  0  0  0  0  0  0  0  0
   21.1016   19.3905   19.4517 H   0  0  0  0  0  0  0  0  0  0  0  0
   20.7581   17.6529   19.3207 H   0  0  0  0  0  0  0  0  0  0  0  0
   19.5585   18.7386   20.0491 H   0  0  0  0  0  0  0  0  0  0  0  0
  1  2  1  0  0  0  0
  1  3  2  0  0  0  0
  1  4  1  0  0  0  0
  4  5  1  0  0  0  0
  4  6  2  0  0  0  0
  6  7  1  0  0  0  0
  6  8  1  0  0  0  0
  8  9  1  0  0  0  0
  8 10  1  0  0  0  0
  8 11  1  0  0  0  0
 11 12  1  0  0  0  0
 11 13  1  0  0  0  0
 11 14  1  0  0  0  0
 14 15  1  0  0  0  0
 14 16  1  0  0  0  0
 14 17  1  0  0  0  0
M  END
> <VConfSearch Rank>
851

> <Conf_Id>
3

> <Delta U+W>
0.531

> <U+W>
-52.878

> <U>
10.067

> <W>
-62.945

> <W(PB)>
-64.982

> <W(SA)>
2.037

> <Valence>
2.779

> <Coulomb>
6.474

> <VdW>
0.815

> <VdW6>
-5.088

> <VdW12>
5.902

> <Bond>
0.078

> <Angle>
2.651

> <Pdih>
0.050

> <Idih>
0.000

> <Tether>
0.000

$$$$
VeraChem MOL file


 17 16  0  0  0  0  0  0  0  0999 V2000     
   20.0738   22.0792   21.5964 C   0  0  0  0  0  0  0  0  0  0  0  0
   19.4017   22.7659   20.8517 O   0  5  0  0  0  0  0  0  0  0  0  0
   21.1563   22.4335   22.0241 O   0  0  0  0  0  0  0  0  0  0  0  0
   19.5257   20.7530   21.9901 C   0  0  0  0  0  0  0  0  0  0  0  0
   18.5543   20.4988   21.5725 H   0  0  0  0  0  0  0  0  0  0  0  0
   20.1648   19.8863   22.8086 C   0  0  0  0  0  0  0  0  0  0  0  0
   21.1401   20.1315   23.2284 H   0  0  0  0  0  0  0  0  0  0  0  0
   19.6055   18.5357   23.2053 C   0  0  0  0  0  0  0  0  0  0  0  0
   18.5262   18.4908   23.0061 H   0  0  0  0  0  0  0  0  0  0  0  0
   19.7215   18.4043   24.2894 H   0  0  0  0  0  0  0  0  0  0  0  0
   20.3158   17.3714   22.4808 C   0  0  0  0  0  0  0  0  0  0  0  0
   21.3960   17.4171   22.6774 H   0  0  0  0  0  0  0  0  0  0  0  0
   19.9608   16.4193   22.8988 H   0  0  0  0  0  0  0  0  0  0  0  0
   20.0634   17.3772   20.9580 C   0  0  0  0  0  0  0  0  0  0  0  0
   20.4638   18.2878   20.4935 H   0  0  0  0  0  0  0  0  0  0  0  0
   20.5499   16.5156   20.4827 H   0  0  0  0  0  0  0  0  0  0  0  0
   18.9893   17.3243   20.7379 H   0  0  0  0  0  0  0  0  0  0  0  0
  1  2  1  0  0  0  0
  1  3  2  0  0  0  0
  1  4  1  0  0  0  0
  4  5  1  0  0  0  0
  4  6  2  0  0  0  0
  6  7  1  0  0  0  0
  6  8  1  0  0  0  0
  8  9  1  0  0  0  0
  8 10  1  0  0  0  0
  8 11  1  0  0  0  0
 11 12  1  0  0  0  0
 11 13  1  0  0  0  0
 11 14  1  0  0  0  0
 14 15  1  0  0  0  0
 14 16  1  0  0  0  0
 14 17  1  0  0  0  0
M  END
> <VConfSearch Rank>
852

> <Conf_Id>
45

> <Delta U+W>
0.562

> <U+W>
-52.846

> <U>
10.243

> <W>
-63.089

> <W(PB)>
-65.116

> <W(SA)>
2.026

> <Valence>
2.822

> <Coulomb>
6.637

> <VdW>
0.785

> <VdW6>
-5.216

> <VdW12>
6.001

> <Bond>
0.080

> <Angle>
2.678

> <Pdih>
0.064

> <Idih>
0.000

> <Tether>
0.000

$$$$
VeraChem MOL file


 17 16  0  0  0  0  0  0  0  0999 V2000     
   18.8187   15.9671   21.6441 C   0  0  0  0  0  0  0  0  0  0  0  0
   18.2160   15.4466   20.7257 O   0  5  0  0  0  0  0  0  0  0  0  0
   18.9016   15.4645   22.7490 O   0  0  0  0  0  0  0  0  0  0  0  0
   19.4769   17.2754   21.3806 C   0  0  0  0  0  0  0  0  0  0  0  0
   19.3643   17.6689   20.3729 H   0  0  0  0  0  0  0  0  0  0  0  0
   20.1783   17.9665   22.3077 C   0  0  0  0  0  0  0  0  0  0  0  0
   20.2954   17.5826   23.3209 H   0  0  0  0  0  0  0  0  0  0  0  0
   20.8429   19.2976   22.0321 C   0  0  0  0  0  0  0  0  0  0  0  0
   21.2745   19.2999   21.0219 H   0  0  0  0  0  0  0  0  0  0  0  0
   21.6789   19.4426   22.7295 H   0  0  0  0  0  0  0  0  0  0  0  0
   19.8440   20.4643   22.1740 C   0  0  0  0  0  0  0  0  0  0  0  0
   19.0089   20.3229   21.4739 H   0  0  0  0  0  0  0  0  0  0  0  0
   19.4152   20.4611   23.1858 H   0  0  0  0  0  0  0  0  0  0  0  0
   20.5159   21.8256   21.9039 C   0  0  0  0  0  0  0  0  0  0  0  0
   21.3354   22.0067   22.6118 H   0  0  0  0  0  0  0  0  0  0  0  0
   20.9263   21.8661   20.8864 H   0  0  0  0  0  0  0  0  0  0  0  0
   19.7904   22.6427   22.0094 H   0  0  0  0  0  0  0  0  0  0  0  0
  1  2  1  0  0  0  0
  1  3  2  0  0  0  0
  1  4  1  0  0  0  0
  4  5  1  0  0  0  0
  4  6  2  0  0  0  0
  6  7  1  0  0  0  0
  6  8  1  0  0  0  0
  8  9  1  0  0  0  0
  8 10  1  0  0  0  0
  8 11  1  0  0  0  0
 11 12  1  0  0  0  0
 11 13  1  0  0  0  0
 11 14  1  0  0  0  0
 14 15  1  0  0  0  0
 14 16  1  0  0  0  0
 14 17  1  0  0  0  0
M  END
> <VConfSearch Rank>
853

> <Conf_Id>
36

> <Delta U+W>
0.000

> <U+W>
-53.409

> <U>
9.048

> <W>
-62.457

> <W(PB)>
-64.540

> <W(SA)>
2.084

> <Valence>
2.652

> <Coulomb>
5.578

> <VdW>
0.818

> <VdW6>
-4.534

> <VdW12>
5.352

> <Bond>
0.063

> <Angle>
2.579

> <Pdih>
0.010

> <Idih>
0.000

> <Tether>
0.000

$$$$
VeraChem MOL file


 17 16  0  0  0  0  0  0  0  0999 V2000     
   17.9452   20.7896   23.9678 C   0  0  0  0  0  0  0  0  0  0  0  0
   18.1548   21.9733   23.7803 O   0  5  0  0  0  0  0  0  0  0  0  0
   17.2667   20.3771   24.8883 O   0  0  0  0  0  0  0  0  0  0  0  0
   18.5332   19.7835   23.0425 C   0  0  0  0  0  0  0  0  0  0  0  0
   18.3072   18.7435   23.2663 H   0  0  0  0  0  0  0  0  0  0  0  0
   19.3075   20.0991   21.9795 C   0  0  0  0  0  0  0  0  0  0  0  0
   19.5421   21.1377   21.7473 H   0  0  0  0  0  0  0  0  0  0  0  0
   19.9032   19.0696   21.0443 C   0  0  0  0  0  0  0  0  0  0  0  0
   20.0940   19.5290   20.0650 H   0  0  0  0  0  0  0  0  0  0  0  0
   19.1843   18.2568   20.8735 H   0  0  0  0  0  0  0  0  0  0  0  0
   21.2176   18.4921   21.6082 C   0  0  0  0  0  0  0  0  0  0  0  0
   21.9358   19.3066   21.7761 H   0  0  0  0  0  0  0  0  0  0  0  0
   21.0277   18.0284   22.5862 H   0  0  0  0  0  0  0  0  0  0  0  0
   21.8361   17.4485   20.6563 C   0  0  0  0  0  0  0  0  0  0  0  0
   22.0654   17.8946   19.6797 H   0  0  0  0  0  0  0  0  0  0  0  0
   22.7695   17.0493   21.0740 H   0  0  0  0  0  0  0  0  0  0  0  0
   21.1493   16.6070   20.4963 H   0  0  0  0  0  0  0  0  0  0  0  0
  1  2  1  0  0  0  0
  1  3  2  0  0  0  0
  1  4  1  0  0  0  0
  4  5  1  0  0  0  0
  4  6  2  0  0  0  0
  6  7  1  0  0  0  0
  6  8  1  0  0  0  0
  8  9  1  0  0  0  0
  8 10  1  0  0  0  0
  8 11  1  0  0  0  0
 11 12  1  0  0  0  0
 11 13  1  0  0  0  0
 11 14  1  0  0  0  0
 14 15  1  0  0  0  0
 14 16  1  0  0  0  0
 14 17  1  0  0  0  0
M  END
> <VConfSearch Rank>
854

> <Conf_Id>
1

> <Delta U+W>
0.030

> <U+W>
-53.378

> <U>
9.048

> <W>
-62.426

> <W(PB)>
-64.506

> <W(SA)>
2.080

> <Valence>
2.652

> <Coulomb>
5.578

> <VdW>
0.818

> <VdW6>
-4.535

> <VdW12>
5.352

> <Bond>
0.063

> <Angle>
2.579

> <Pdih>
0.010

> <Idih>
0.000

> <Tether>
0.000

$$$$
VeraChem MOL file


 17 16  0  0  0  0  0  0  0  0999 V2000     
   20.0978   21.9878   21.0092 C   0  0  0  0  0  0  0  0  0  0  0  0
   19.6996   21.8232   19.8714 O   0  5  0  0  0  0  0  0  0  0  0  0
   20.1431   23.0801   21.5410 O   0  0  0  0  0  0  0  0  0  0  0  0
   20.5581   20.8170   21.8038 C   0  0  0  0  0  0  0  0  0  0  0  0
   20.9022   21.0335   22.8125 H   0  0  0  0  0  0  0  0  0  0  0  0
   20.5619   19.5464   21.3406 C   0  0  0  0  0  0  0  0  0  0  0  0
   20.2162   19.3177   20.3328 H   0  0  0  0  0  0  0  0  0  0  0  0
   21.0283   18.3591   22.1566 C   0  0  0  0  0  0  0  0  0  0  0  0
   21.9263   18.6337   22.7265 H   0  0  0  0  0  0  0  0  0  0  0  0
   21.3285   17.5415   21.4875 H   0  0  0  0  0  0  0  0  0  0  0  0
   19.9434   17.8548   23.1335 C   0  0  0  0  0  0  0  0  0  0  0  0
   20.3704   17.0667   23.7689 H   0  0  0  0  0  0  0  0  0  0  0  0
   19.6418   18.6704   23.8053 H   0  0  0  0  0  0  0  0  0  0  0  0
   18.7030   17.2973   22.4033 C   0  0  0  0  0  0  0  0  0  0  0  0
   18.9791   16.4714   21.7347 H   0  0  0  0  0  0  0  0  0  0  0  0
   17.9683   16.9178   23.1252 H   0  0  0  0  0  0  0  0  0  0  0  0
   18.2137   18.0754   21.8030 H   0  0  0  0  0  0  0  0  0  0  0  0
  1  2  1  0  0  0  0
  1  3  2  0  0  0  0
  1  4  1  0  0  0  0
  4  5  1  0  0  0  0
  4  6  2  0  0  0  0
  6  7  1  0  0  0  0
  6  8  1  0  0  0  0
  8  9  1  0  0  0  0
  8 10  1  0  0  0  0
  8 11  1  0  0  0  0
 11 12  1  0  0  0  0
 11 13  1  0  0  0  0
 11 14  1  0  0  0  0
 14 15  1  0  0  0  0
 14 16  1  0  0  0  0
 14 17  1  0  0  0  0
M  END
> <VConfSearch Rank>
855

> <Conf_Id>
3

> <Delta U+W>
0.531

> <U+W>
-52.878

> <U>
10.067

> <W>
-62.945

> <W(PB)>
-64.982

> <W(SA)>
2.037

> <Valence>
2.779

> <Coulomb>
6.474

> <VdW>
0.815

> <VdW6>
-5.088

> <VdW12>
5.902

> <Bond>
0.078

> <Angle>
2.651

> <Pdih>
0.050

> <Idih>
0.000

> <Tether>
0.000

$$$$
VeraChem MOL file


 17 16  0  0  0  0  0  0  0  0999 V2000     
   19.4021   21.6591   20.5812 C   0  0  0  0  0  0  0  0  0  0  0  0
   19.7085   22.8027   20.8568 O   0  5  0  0  0  0  0  0  0  0  0  0
   18.4923   21.3841   19.8215 O   0  0  0  0  0  0  0  0  0  0  0  0
   20.1909   20.5655   21.2103 C   0  0  0  0  0  0  0  0  0  0  0  0
   20.9891   20.8807   21.8783 H   0  0  0  0  0  0  0  0  0  0  0  0
   19.9595   19.2501   20.9962 C   0  0  0  0  0  0  0  0  0  0  0  0
   19.1594   18.9255   20.3313 H   0  0  0  0  0  0  0  0  0  0  0  0
   20.7625   18.1390   21.6404 C   0  0  0  0  0  0  0  0  0  0  0  0
   21.7118   18.5267   22.0344 H   0  0  0  0  0  0  0  0  0  0  0  0
   21.0296   17.3991   20.8740 H   0  0  0  0  0  0  0  0  0  0  0  0
   19.9825   17.4309   22.7697 C   0  0  0  0  0  0  0  0  0  0  0  0
   19.0315   17.0451   22.3770 H   0  0  0  0  0  0  0  0  0  0  0  0
   20.5578   16.5592   23.1108 H   0  0  0  0  0  0  0  0  0  0  0  0
   19.7105   18.3567   23.9746 C   0  0  0  0  0  0  0  0  0  0  0  0
   19.0817   19.2088   23.6854 H   0  0  0  0  0  0  0  0  0  0  0  0
   19.1903   17.8101   24.7717 H   0  0  0  0  0  0  0  0  0  0  0  0
   20.6489   18.7483   24.3883 H   0  0  0  0  0  0  0  0  0  0  0  0
  1  2  1  0  0  0  0
  1  3  2  0  0  0  0
  1  4  1  0  0  0  0
  4  5  1  0  0  0  0
  4  6  2  0  0  0  0
  6  7  1  0  0  0  0
  6  8  1  0  0  0  0
  8  9  1  0  0  0  0
  8 10  1  0  0  0  0
  8 11  1  0  0  0  0
 11 12  1  0  0  0  0
 11 13  1  0  0  0  0
 11 14  1  0  0  0  0
 14 15  1  0  0  0  0
 14 16  1  0  0  0  0
 14 17  1  0  0  0  0
M  END
> <VConfSearch Rank>
856

> <Conf_Id>
45

> <Delta U+W>
0.562

> <U+W>
-52.846

> <U>
10.243

> <W>
-63.089

> <W(PB)>
-65.116

> <W(SA)>
2.026

> <Valence>
2.822

> <Coulomb>
6.637

> <VdW>
0.785

> <VdW6>
-5.216

> <VdW12>
6.001

> <Bond>
0.080

> <Angle>
2.678

> <Pdih>
0.064

> <Idih>
0.000

> <Tether>
0.000

$$$$
VeraChem MOL file


 17 16  0  0  0  0  0  0  0  0999 V2000     
   23.1129   20.3341   22.3202 C   0  0  0  0  0  0  0  0  0  0  0  0
   23.5462   21.4412   22.0666 O   0  5  0  0  0  0  0  0  0  0  0  0
   23.8316   19.3846   22.5696 O   0  0  0  0  0  0  0  0  0  0  0  0
   21.6354   20.1577   22.3210 C   0  0  0  0  0  0  0  0  0  0  0  0
   21.0513   21.0456   22.0903 H   0  0  0  0  0  0  0  0  0  0  0  0
   21.0166   18.9842   22.5841 C   0  0  0  0  0  0  0  0  0  0  0  0
   21.5923   18.0879   22.8141 H   0  0  0  0  0  0  0  0  0  0  0  0
   19.5133   18.8128   22.5807 C   0  0  0  0  0  0  0  0  0  0  0  0
   19.0330   19.7015   23.0122 H   0  0  0  0  0  0  0  0  0  0  0  0
   19.2383   17.9658   23.2237 H   0  0  0  0  0  0  0  0  0  0  0  0
   18.9784   18.5729   21.1541 C   0  0  0  0  0  0  0  0  0  0  0  0
   19.2491   19.4214   20.5105 H   0  0  0  0  0  0  0  0  0  0  0  0
   19.4587   17.6823   20.7254 H   0  0  0  0  0  0  0  0  0  0  0  0
   17.4476   18.3876   21.1432 C   0  0  0  0  0  0  0  0  0  0  0  0
   17.1518   17.5249   21.7545 H   0  0  0  0  0  0  0  0  0  0  0  0
   16.9414   19.2780   21.5387 H   0  0  0  0  0  0  0  0  0  0  0  0
   17.0858   18.2184   20.1207 H   0  0  0  0  0  0  0  0  0  0  0  0
  1  2  1  0  0  0  0
  1  3  2  0  0  0  0
  1  4  1  0  0  0  0
  4  5  1  0  0  0  0
  4  6  2  0  0  0  0
  6  7  1  0  0  0  0
  6  8  1  0  0  0  0
  8  9  1  0  0  0  0
  8 10  1  0  0  0  0
  8 11  1  0  0  0  0
 11 12  1  0  0  0  0
 11 13  1  0  0  0  0
 11 14  1  0  0  0  0
 14 15  1  0  0  0  0
 14 16  1  0  0  0  0
 14 17  1  0  0  0  0
M  END
> <VConfSearch Rank>
857

> <Conf_Id>
36

> <Delta U+W>
0.000

> <U+W>
-53.409

> <U>
9.048

> <W>
-62.457

> <W(PB)>
-64.540

> <W(SA)>
2.084

> <Valence>
2.652

> <Coulomb>
5.578

> <VdW>
0.818

> <VdW6>
-4.534

> <VdW12>
5.352

> <Bond>
0.063

> <Angle>
2.579

> <Pdih>
0.010

> <Idih>
0.000

> <Tether>
0.000

$$$$
VeraChem MOL file


 17 16  0  0  0  0  0  0  0  0999 V2000     
   19.3106   17.6194   18.9623 C   0  0  0  0  0  0  0  0  0  0  0  0
   20.2640   17.8180   18.2329 O   0  5  0  0  0  0  0  0  0  0  0  0
   18.2577   17.1621   18.5625 O   0  0  0  0  0  0  0  0  0  0  0  0
   19.4143   17.9412   20.4114 C   0  0  0  0  0  0  0  0  0  0  0  0
   18.5269   17.7398   21.0070 H   0  0  0  0  0  0  0  0  0  0  0  0
   20.5225   18.4551   20.9919 C   0  0  0  0  0  0  0  0  0  0  0  0
   21.4164   18.6628   20.4042 H   0  0  0  0  0  0  0  0  0  0  0  0
   20.6190   18.7813   22.4662 C   0  0  0  0  0  0  0  0  0  0  0  0
   21.6709   18.7525   22.7812 H   0  0  0  0  0  0  0  0  0  0  0  0
   20.0954   18.0161   23.0553 H   0  0  0  0  0  0  0  0  0  0  0  0
   20.0260   20.1715   22.7742 C   0  0  0  0  0  0  0  0  0  0  0  0
   20.5527   20.9354   22.1855 H   0  0  0  0  0  0  0  0  0  0  0  0
   18.9723   20.2007   22.4634 H   0  0  0  0  0  0  0  0  0  0  0  0
   20.1290   20.5154   24.2737 C   0  0  0  0  0  0  0  0  0  0  0  0
   21.1760   20.5243   24.6039 H   0  0  0  0  0  0  0  0  0  0  0  0
   19.7024   21.5071   24.4732 H   0  0  0  0  0  0  0  0  0  0  0  0
   19.5834   19.7830   24.8831 H   0  0  0  0  0  0  0  0  0  0  0  0
  1  2  1  0  0  0  0
  1  3  2  0  0  0  0
  1  4  1  0  0  0  0
  4  5  1  0  0  0  0
  4  6  2  0  0  0  0
  6  7  1  0  0  0  0
  6  8  1  0  0  0  0
  8  9  1  0  0  0  0
  8 10  1  0  0  0  0
  8 11  1  0  0  0  0
 11 12  1  0  0  0  0
 11 13  1  0  0  0  0
 11 14  1  0  0  0  0
 14 15  1  0  0  0  0
 14 16  1  0  0  0  0
 14 17  1  0  0  0  0
M  END
> <VConfSearch Rank>
858

> <Conf_Id>
1

> <Delta U+W>
0.030

> <U+W>
-53.378

> <U>
9.048

> <W>
-62.426

> <W(PB)>
-64.506

> <W(SA)>
2.080

> <Valence>
2.652

> <Coulomb>
5.578

> <VdW>
0.818

> <VdW6>
-4.535

> <VdW12>
5.352

> <Bond>
0.063

> <Angle>
2.579

> <Pdih>
0.010

> <Idih>
0.000

> <Tether>
0.000

$$$$
VeraChem MOL file


 17 16  0  0  0  0  0  0  0  0999 V2000     
   19.1068   20.6013   24.5766 C   0  0  0  0  0  0  0  0  0  0  0  0
   19.8400   20.0999   25.4082 O   0  5  0  0  0  0  0  0  0  0  0  0
   18.4917   21.6310   24.7744 O   0  0  0  0  0  0  0  0  0  0  0  0
   18.9366   19.9423   23.2535 C   0  0  0  0  0  0  0  0  0  0  0  0
   18.2669   20.4416   22.5571 H   0  0  0  0  0  0  0  0  0  0  0  0
   19.5590   18.7958   22.8969 C   0  0  0  0  0  0  0  0  0  0  0  0
   20.2346   18.2889   23.5856 H   0  0  0  0  0  0  0  0  0  0  0  0
   19.3838   18.1329   21.5467 C   0  0  0  0  0  0  0  0  0  0  0  0
   18.3291   18.1859   21.2445 H   0  0  0  0  0  0  0  0  0  0  0  0
   19.6275   17.0646   21.6214 H   0  0  0  0  0  0  0  0  0  0  0  0
   20.2573   18.7865   20.4534 C   0  0  0  0  0  0  0  0  0  0  0  0
   20.0116   18.3374   19.4812 H   0  0  0  0  0  0  0  0  0  0  0  0
   20.0148   19.8554   20.3754 H   0  0  0  0  0  0  0  0  0  0  0  0
   21.7676   18.6143   20.7215 C   0  0  0  0  0  0  0  0  0  0  0  0
   22.0355   17.5519   20.7907 H   0  0  0  0  0  0  0  0  0  0  0  0
   22.3569   19.0602   19.9098 H   0  0  0  0  0  0  0  0  0  0  0  0
   22.0618   19.1039   21.6590 H   0  0  0  0  0  0  0  0  0  0  0  0
  1  2  1  0  0  0  0
  1  3  2  0  0  0  0
  1  4  1  0  0  0  0
  4  5  1  0  0  0  0
  4  6  2  0  0  0  0
  6  7  1  0  0  0  0
  6  8  1  0  0  0  0
  8  9  1  0  0  0  0
  8 10  1  0  0  0  0
  8 11  1  0  0  0  0
 11 12  1  0  0  0  0
 11 13  1  0  0  0  0
 11 14  1  0  0  0  0
 14 15  1  0  0  0  0
 14 16  1  0  0  0  0
 14 17  1  0  0  0  0
M  END
> <VConfSearch Rank>
859

> <Conf_Id>
3

> <Delta U+W>
0.531

> <U+W>
-52.878

> <U>
10.067

> <W>
-62.945

> <W(PB)>
-64.982

> <W(SA)>
2.037

> <Valence>
2.779

> <Coulomb>
6.474

> <VdW>
0.815

> <VdW6>
-5.088

> <VdW12>
5.902

> <Bond>
0.078

> <Angle>
2.651

> <Pdih>
0.050

> <Idih>
0.000

> <Tether>
0.000

$$$$
VeraChem MOL file


 17 16  0  0  0  0  0  0  0  0999 V2000     
   20.1758   20.2677   19.2991 C   0  0  0  0  0  0  0  0  0  0  0  0
   20.4316   21.4048   18.9536 O   0  5  0  0  0  0  0  0  0  0  0  0
   19.6012   19.4723   18.5796 O   0  0  0  0  0  0  0  0  0  0  0  0
   20.5968   19.8531   20.6648 C   0  0  0  0  0  0  0  0  0  0  0  0
   21.1052   20.6121   21.2548 H   0  0  0  0  0  0  0  0  0  0  0  0
   20.3759   18.6223   21.1803 C   0  0  0  0  0  0  0  0  0  0  0  0
   19.8639   17.8570   20.5974 H   0  0  0  0  0  0  0  0  0  0  0  0
   20.8032   18.2041   22.5720 C   0  0  0  0  0  0  0  0  0  0  0  0
   21.5589   18.8958   22.9684 H   0  0  0  0  0  0  0  0  0  0  0  0
   21.2885   17.2205   22.5175 H   0  0  0  0  0  0  0  0  0  0  0  0
   19.6116   18.1210   23.5509 C   0  0  0  0  0  0  0  0  0  0  0  0
   18.8539   17.4312   23.1539 H   0  0  0  0  0  0  0  0  0  0  0  0
   19.9579   17.6931   24.5018 H   0  0  0  0  0  0  0  0  0  0  0  0
   18.9696   19.4982   23.8234 C   0  0  0  0  0  0  0  0  0  0  0  0
   18.5531   19.9300   22.9041 H   0  0  0  0  0  0  0  0  0  0  0  0
   18.1535   19.4064   24.5516 H   0  0  0  0  0  0  0  0  0  0  0  0
   19.7081   20.2022   24.2285 H   0  0  0  0  0  0  0  0  0  0  0  0
  1  2  1  0  0  0  0
  1  3  2  0  0  0  0
  1  4  1  0  0  0  0
  4  5  1  0  0  0  0
  4  6  2  0  0  0  0
  6  7  1  0  0  0  0
  6  8  1  0  0  0  0
  8  9  1  0  0  0  0
  8 10  1  0  0  0  0
  8 11  1  0  0  0  0
 11 12  1  0  0  0  0
 11 13  1  0  0  0  0
 11 14  1  0  0  0  0
 14 15  1  0  0  0  0
 14 16  1  0  0  0  0
 14 17  1  0  0  0  0
M  END
> <VConfSearch Rank>
860

> <Conf_Id>
45

> <Delta U+W>
0.562

> <U+W>
-52.846

> <U>
10.243

> <W>
-63.089

> <W(PB)>
-65.116

> <W(SA)>
2.026

> <Valence>
2.822

> <Coulomb>
6.637

> <VdW>
0.785

> <VdW6>
-5.216

> <VdW12>
6.001

> <Bond>
0.080

> <Angle>
2.678

> <Pdih>
0.064

> <Idih>
0.000

> <Tether>
0.000

$$$$
VeraChem MOL file


 17 16  0  0  0  0  0  0  0  0999 V2000     
   19.5588   18.2831   18.6743 C   0  0  0  0  0  0  0  0  0  0  0  0
   20.1967   17.5097   17.9868 O   0  5  0  0  0  0  0  0  0  0  0  0
   18.7603   19.0753   18.2103 O   0  0  0  0  0  0  0  0  0  0  0  0
   19.7805   18.2392   20.1450 C   0  0  0  0  0  0  0  0  0  0  0  0
   20.5069   17.5088   20.4939 H   0  0  0  0  0  0  0  0  0  0  0  0
   19.1421   19.0407   21.0277 C   0  0  0  0  0  0  0  0  0  0  0  0
   18.4141   19.7775   20.6888 H   0  0  0  0  0  0  0  0  0  0  0  0
   19.3749   18.9911   22.5219 C   0  0  0  0  0  0  0  0  0  0  0  0
   19.5078   17.9502   22.8470 H   0  0  0  0  0  0  0  0  0  0  0  0
   18.4871   19.3709   23.0453 H   0  0  0  0  0  0  0  0  0  0  0  0
   20.6083   19.8243   22.9263 C   0  0  0  0  0  0  0  0  0  0  0  0
   21.4983   19.4428   22.4066 H   0  0  0  0  0  0  0  0  0  0  0  0
   20.4721   20.8653   22.6019 H   0  0  0  0  0  0  0  0  0  0  0  0
   20.8471   19.7866   24.4492 C   0  0  0  0  0  0  0  0  0  0  0  0
   19.9837   20.1927   24.9924 H   0  0  0  0  0  0  0  0  0  0  0  0
   21.0171   18.7585   24.7948 H   0  0  0  0  0  0  0  0  0  0  0  0
   21.7279   20.3843   24.7174 H   0  0  0  0  0  0  0  0  0  0  0  0
  1  2  1  0  0  0  0
  1  3  2  0  0  0  0
  1  4  1  0  0  0  0
  4  5  1  0  0  0  0
  4  6  2  0  0  0  0
  6  7  1  0  0  0  0
  6  8  1  0  0  0  0
  8  9  1  0  0  0  0
  8 10  1  0  0  0  0
  8 11  1  0  0  0  0
 11 12  1  0  0  0  0
 11 13  1  0  0  0  0
 11 14  1  0  0  0  0
 14 15  1  0  0  0  0
 14 16  1  0  0  0  0
 14 17  1  0  0  0  0
M  END
> <VConfSearch Rank>
861

> <Conf_Id>
36

> <Delta U+W>
0.000

> <U+W>
-53.409

> <U>
9.048

> <W>
-62.457

> <W(PB)>
-64.540

> <W(SA)>
2.084

> <Valence>
2.652

> <Coulomb>
5.578

> <VdW>
0.818

> <VdW6>
-4.534

> <VdW12>
5.352

> <Bond>
0.063

> <Angle>
2.579

> <Pdih>
0.010

> <Idih>
0.000

> <Tether>
0.000

$$$$
VeraChem MOL file


 17 16  0  0  0  0  0  0  0  0999 V2000     
   18.3272   18.3580   19.0867 C   0  0  0  0  0  0  0  0  0  0  0  0
   17.1771   18.7155   19.2593 O   0  5  0  0  0  0  0  0  0  0  0  0
   18.6719   17.6778   18.1401 O   0  0  0  0  0  0  0  0  0  0  0  0
   19.3760   18.7596   20.0629 C   0  0  0  0  0  0  0  0  0  0  0  0
   20.3826   18.4071   19.8499 H   0  0  0  0  0  0  0  0  0  0  0  0
   19.1357   19.5128   21.1602 C   0  0  0  0  0  0  0  0  0  0  0  0
   18.1305   19.8694   21.3844 H   0  0  0  0  0  0  0  0  0  0  0  0
   20.2078   19.9153   22.1490 C   0  0  0  0  0  0  0  0  0  0  0  0
   19.9043   20.8354   22.6664 H   0  0  0  0  0  0  0  0  0  0  0  0
   21.1404   20.1487   21.6175 H   0  0  0  0  0  0  0  0  0  0  0  0
   20.4638   18.8013   23.1847 C   0  0  0  0  0  0  0  0  0  0  0  0
   19.5301   18.5711   23.7165 H   0  0  0  0  0  0  0  0  0  0  0  0
   20.7716   17.8811   22.6690 H   0  0  0  0  0  0  0  0  0  0  0  0
   21.5490   19.2076   24.2020 C   0  0  0  0  0  0  0  0  0  0  0  0
   21.2519   20.1084   24.7549 H   0  0  0  0  0  0  0  0  0  0  0  0
   21.7171   18.4033   24.9301 H   0  0  0  0  0  0  0  0  0  0  0  0
   22.5025   19.4133   23.6981 H   0  0  0  0  0  0  0  0  0  0  0  0
  1  2  1  0  0  0  0
  1  3  2  0  0  0  0
  1  4  1  0  0  0  0
  4  5  1  0  0  0  0
  4  6  2  0  0  0  0
  6  7  1  0  0  0  0
  6  8  1  0  0  0  0
  8  9  1  0  0  0  0
  8 10  1  0  0  0  0
  8 11  1  0  0  0  0
 11 12  1  0  0  0  0
 11 13  1  0  0  0  0
 11 14  1  0  0  0  0
 14 15  1  0  0  0  0
 14 16  1  0  0  0  0
 14 17  1  0  0  0  0
M  END
> <VConfSearch Rank>
862

> <Conf_Id>
1

> <Delta U+W>
0.030

> <U+W>
-53.378

> <U>
9.048

> <W>
-62.426

> <W(PB)>
-64.506

> <W(SA)>
2.080

> <Valence>
2.652

> <Coulomb>
5.578

> <VdW>
0.818

> <VdW6>
-4.535

> <VdW12>
5.352

> <Bond>
0.063

> <Angle>
2.579

> <Pdih>
0.010

> <Idih>
0.000

> <Tether>
0.000

$$$$
VeraChem MOL file


 17 16  0  0  0  0  0  0  0  0999 V2000     
   22.0504   21.1091   23.1810 C   0  0  0  0  0  0  0  0  0  0  0  0
   21.3843   22.1270   23.1564 O   0  5  0  0  0  0  0  0  0  0  0  0
   23.0817   21.0106   23.8169 O   0  0  0  0  0  0  0  0  0  0  0  0
   21.6058   19.9204   22.4042 C   0  0  0  0  0  0  0  0  0  0  0  0
   22.2467   19.0442   22.4687 H   0  0  0  0  0  0  0  0  0  0  0  0
   20.4804   19.8877   21.6548 C   0  0  0  0  0  0  0  0  0  0  0  0
   19.8292   20.7588   21.5858 H   0  0  0  0  0  0  0  0  0  0  0  0
   20.0322   18.6728   20.8699 C   0  0  0  0  0  0  0  0  0  0  0  0
   20.9026   18.1982   20.3969 H   0  0  0  0  0  0  0  0  0  0  0  0
   19.3692   18.9819   20.0506 H   0  0  0  0  0  0  0  0  0  0  0  0
   19.3088   17.6348   21.7558 C   0  0  0  0  0  0  0  0  0  0  0  0
   19.1022   16.7354   21.1596 H   0  0  0  0  0  0  0  0  0  0  0  0
   19.9702   17.3226   22.5759 H   0  0  0  0  0  0  0  0  0  0  0  0
   17.9823   18.1726   22.3338 C   0  0  0  0  0  0  0  0  0  0  0  0
   17.2997   18.4793   21.5306 H   0  0  0  0  0  0  0  0  0  0  0  0
   17.4794   17.3996   22.9293 H   0  0  0  0  0  0  0  0  0  0  0  0
   18.1564   19.0388   22.9853 H   0  0  0  0  0  0  0  0  0  0  0  0
  1  2  1  0  0  0  0
  1  3  2  0  0  0  0
  1  4  1  0  0  0  0
  4  5  1  0  0  0  0
  4  6  2  0  0  0  0
  6  7  1  0  0  0  0
  6  8  1  0  0  0  0
  8  9  1  0  0  0  0
  8 10  1  0  0  0  0
  8 11  1  0  0  0  0
 11 12  1  0  0  0  0
 11 13  1  0  0  0  0
 11 14  1  0  0  0  0
 14 15  1  0  0  0  0
 14 16  1  0  0  0  0
 14 17  1  0  0  0  0
M  END
> <VConfSearch Rank>
863

> <Conf_Id>
3

> <Delta U+W>
0.531

> <U+W>
-52.878

> <U>
10.067

> <W>
-62.945

> <W(PB)>
-64.982

> <W(SA)>
2.037

> <Valence>
2.779

> <Coulomb>
6.474

> <VdW>
0.815

> <VdW6>
-5.088

> <VdW12>
5.902

> <Bond>
0.078

> <Angle>
2.651

> <Pdih>
0.050

> <Idih>
0.000

> <Tether>
0.000

$$$$
VeraChem MOL file


 17 16  0  0  0  0  0  0  0  0999 V2000     
   20.1972   20.7251   24.6118 C   0  0  0  0  0  0  0  0  0  0  0  0
   20.3725   21.9197   24.7531 O   0  5  0  0  0  0  0  0  0  0  0  0
   20.4353   19.9146   25.4875 O   0  0  0  0  0  0  0  0  0  0  0  0
   19.6647   20.2586   23.3030 C   0  0  0  0  0  0  0  0  0  0  0  0
   19.4739   21.0345   22.5653 H   0  0  0  0  0  0  0  0  0  0  0  0
   19.4240   18.9610   23.0067 C   0  0  0  0  0  0  0  0  0  0  0  0
   19.6158   18.1768   23.7387 H   0  0  0  0  0  0  0  0  0  0  0  0
   18.8844   18.4889   21.6724 C   0  0  0  0  0  0  0  0  0  0  0  0
   18.4374   19.3256   21.1185 H   0  0  0  0  0  0  0  0  0  0  0  0
   18.0725   17.7706   21.8481 H   0  0  0  0  0  0  0  0  0  0  0  0
   19.9708   17.8147   20.8062 C   0  0  0  0  0  0  0  0  0  0  0  0
   20.4204   16.9792   21.3606 H   0  0  0  0  0  0  0  0  0  0  0  0
   19.4995   17.3813   19.9134 H   0  0  0  0  0  0  0  0  0  0  0  0
   21.0742   18.7996   20.3645 C   0  0  0  0  0  0  0  0  0  0  0  0
   21.6125   19.2059   21.2307 H   0  0  0  0  0  0  0  0  0  0  0  0
   21.8060   18.2958   19.7199 H   0  0  0  0  0  0  0  0  0  0  0  0
   20.6478   19.6399   19.8013 H   0  0  0  0  0  0  0  0  0  0  0  0
  1  2  1  0  0  0  0
  1  3  2  0  0  0  0
  1  4  1  0  0  0  0
  4  5  1  0  0  0  0
  4  6  2  0  0  0  0
  6  7  1  0  0  0  0
  6  8  1  0  0  0  0
  8  9  1  0  0  0  0
  8 10  1  0  0  0  0
  8 11  1  0  0  0  0
 11 12  1  0  0  0  0
 11 13  1  0  0  0  0
 11 14  1  0  0  0  0
 14 15  1  0  0  0  0
 14 16  1  0  0  0  0
 14 17  1  0  0  0  0
M  END
> <VConfSearch Rank>
864

> <Conf_Id>
45

> <Delta U+W>
0.562

> <U+W>
-52.846

> <U>
10.243

> <W>
-63.089

> <W(PB)>
-65.116

> <W(SA)>
2.026

> <Valence>
2.822

> <Coulomb>
6.637

> <VdW>
0.785

> <VdW6>
-5.216

> <VdW12>
6.001

> <Bond>
0.080

> <Angle>
2.678

> <Pdih>
0.064

> <Idih>
0.000

> <Tether>
0.000

$$$$
VeraChem MOL file


 17 16  0  0  0  0  0  0  0  0999 V2000     
   19.5410   21.2129   19.3090 C   0  0  0  0  0  0  0  0  0  0  0  0
   18.5185   21.7361   18.9109 O   0  5  0  0  0  0  0  0  0  0  0  0
   20.5703   21.1960   18.6603 O   0  0  0  0  0  0  0  0  0  0  0  0
   19.5081   20.5729   20.6519 C   0  0  0  0  0  0  0  0  0  0  0  0
   18.5578   20.6235   21.1786 H   0  0  0  0  0  0  0  0  0  0  0  0
   20.5690   19.9543   21.2183 C   0  0  0  0  0  0  0  0  0  0  0  0
   21.5251   19.8958   20.6984 H   0  0  0  0  0  0  0  0  0  0  0  0
   20.5265   19.3040   22.5837 C   0  0  0  0  0  0  0  0  0  0  0  0
   19.9176   19.9092   23.2692 H   0  0  0  0  0  0  0  0  0  0  0  0
   21.5389   19.2742   23.0086 H   0  0  0  0  0  0  0  0  0  0  0  0
   19.9567   17.8728   22.5069 C   0  0  0  0  0  0  0  0  0  0  0  0
   18.9421   17.9012   22.0859 H   0  0  0  0  0  0  0  0  0  0  0  0
   20.5686   17.2689   21.8224 H   0  0  0  0  0  0  0  0  0  0  0  0
   19.9188   17.1994   23.8935 C   0  0  0  0  0  0  0  0  0  0  0  0
   20.9264   17.1292   24.3240 H   0  0  0  0  0  0  0  0  0  0  0  0
   19.2874   17.7677   24.5891 H   0  0  0  0  0  0  0  0  0  0  0  0
   19.5108   16.1830   23.8188 H   0  0  0  0  0  0  0  0  0  0  0  0
  1  2  1  0  0  0  0
  1  3  2  0  0  0  0
  1  4  1  0  0  0  0
  4  5  1  0  0  0  0
  4  6  2  0  0  0  0
  6  7  1  0  0  0  0
  6  8  1  0  0  0  0
  8  9  1  0  0  0  0
  8 10  1  0  0  0  0
  8 11  1  0  0  0  0
 11 12  1  0  0  0  0
 11 13  1  0  0  0  0
 11 14  1  0  0  0  0
 14 15  1  0  0  0  0
 14 16  1  0  0  0  0
 14 17  1  0  0  0  0
M  END
> <VConfSearch Rank>
865

> <Conf_Id>
36

> <Delta U+W>
0.000

> <U+W>
-53.409

> <U>
9.048

> <W>
-62.457

> <W(PB)>
-64.540

> <W(SA)>
2.084

> <Valence>
2.652

> <Coulomb>
5.578

> <VdW>
0.818

> <VdW6>
-4.534

> <VdW12>
5.352

> <Bond>
0.063

> <Angle>
2.579

> <Pdih>
0.010

> <Idih>
0.000

> <Tether>
0.000

$$$$
VeraChem MOL file


 17 16  0  0  0  0  0  0  0  0999 V2000     
   19.4914   18.3495   18.6654 C   0  0  0  0  0  0  0  0  0  0  0  0
   18.6642   19.1398   18.2514 O   0  5  0  0  0  0  0  0  0  0  0  0
   19.8476   17.3747   18.0325 O   0  0  0  0  0  0  0  0  0  0  0  0
   20.1095   18.5650   20.0017 C   0  0  0  0  0  0  0  0  0  0  0  0
   20.8411   17.8223   20.3116 H   0  0  0  0  0  0  0  0  0  0  0  0
   19.8077   19.6042   20.8129 C   0  0  0  0  0  0  0  0  0  0  0  0
   19.0746   20.3529   20.5133 H   0  0  0  0  0  0  0  0  0  0  0  0
   20.4396   19.8151   22.1714 C   0  0  0  0  0  0  0  0  0  0  0  0
   20.3980   20.8806   22.4350 H   0  0  0  0  0  0  0  0  0  0  0  0
   21.5034   19.5430   22.1371 H   0  0  0  0  0  0  0  0  0  0  0  0
   19.7251   18.9862   23.2583 C   0  0  0  0  0  0  0  0  0  0  0  0
   18.6618   19.2617   23.2922 H   0  0  0  0  0  0  0  0  0  0  0  0
   19.7694   17.9195   22.9982 H   0  0  0  0  0  0  0  0  0  0  0  0
   20.3575   19.2028   24.6478 C   0  0  0  0  0  0  0  0  0  0  0  0
   20.2979   20.2576   24.9466 H   0  0  0  0  0  0  0  0  0  0  0  0
   19.8363   18.6056   25.4073 H   0  0  0  0  0  0  0  0  0  0  0  0
   21.4143   18.9051   24.6492 H   0  0  0  0  0  0  0  0  0  0  0  0
  1  2  1  0  0  0  0
  1  3  2  0  0  0  0
  1  4  1  0  0  0  0
  4  5  1  0  0  0  0
  4  6  2  0  0  0  0
  6  7  1  0  0  0  0
  6  8  1  0  0  0  0
  8  9  1  0  0  0  0
  8 10  1  0  0  0  0
  8 11  1  0  0  0  0
 11 12  1  0  0  0  0
 11 13  1  0  0  0  0
 11 14  1  0  0  0  0
 14 15  1  0  0  0  0
 14 16  1  0  0  0  0
 14 17  1  0  0  0  0
M  END
> <VConfSearch Rank>
866

> <Conf_Id>
1

> <Delta U+W>
0.030

> <U+W>
-53.378

> <U>
9.048

> <W>
-62.426

> <W(PB)>
-64.506

> <W(SA)>
2.080

> <Valence>
2.652

> <Coulomb>
5.578

> <VdW>
0.818

> <VdW6>
-4.535

> <VdW12>
5.352

> <Bond>
0.063

> <Angle>
2.579

> <Pdih>
0.010

> <Idih>
0.000

> <Tether>
0.000

$$$$
VeraChem MOL file


 17 16  0  0  0  0  0  0  0  0999 V2000     
   21.8655   18.7997   24.4995 C   0  0  0  0  0  0  0  0  0  0  0  0
   21.0393   18.6779   25.3845 O   0  5  0  0  0  0  0  0  0  0  0  0
   23.0391   18.5203   24.6495 O   0  0  0  0  0  0  0  0  0  0  0  0
   21.4462   19.3143   23.1678 C   0  0  0  0  0  0  0  0  0  0  0  0
   22.2335   19.3996   22.4225 H   0  0  0  0  0  0  0  0  0  0  0  0
   20.1761   19.6623   22.8602 C   0  0  0  0  0  0  0  0  0  0  0  0
   19.3788   19.5776   23.5983 H   0  0  0  0  0  0  0  0  0  0  0  0
   19.7560   20.1817   21.5012 C   0  0  0  0  0  0  0  0  0  0  0  0
   20.5182   20.8749   21.1202 H   0  0  0  0  0  0  0  0  0  0  0  0
   18.8306   20.7657   21.5949 H   0  0  0  0  0  0  0  0  0  0  0  0
   19.5478   19.0451   20.4763 C   0  0  0  0  0  0  0  0  0  0  0  0
   19.3493   19.4839   19.4888 H   0  0  0  0  0  0  0  0  0  0  0  0
   20.4727   18.4597   20.3794 H   0  0  0  0  0  0  0  0  0  0  0  0
   18.3792   18.1116   20.8578 C   0  0  0  0  0  0  0  0  0  0  0  0
   17.4407   18.6739   20.9479 H   0  0  0  0  0  0  0  0  0  0  0  0
   18.2382   17.3374   20.0925 H   0  0  0  0  0  0  0  0  0  0  0  0
   18.5705   17.6081   21.8144 H   0  0  0  0  0  0  0  0  0  0  0  0
  1  2  1  0  0  0  0
  1  3  2  0  0  0  0
  1  4  1  0  0  0  0
  4  5  1  0  0  0  0
  4  6  2  0  0  0  0
  6  7  1  0  0  0  0
  6  8  1  0  0  0  0
  8  9  1  0  0  0  0
  8 10  1  0  0  0  0
  8 11  1  0  0  0  0
 11 12  1  0  0  0  0
 11 13  1  0  0  0  0
 11 14  1  0  0  0  0
 14 15  1  0  0  0  0
 14 16  1  0  0  0  0
 14 17  1  0  0  0  0
M  END
> <VConfSearch Rank>
867

> <Conf_Id>
3

> <Delta U+W>
0.531

> <U+W>
-52.878

> <U>
10.067

> <W>
-62.945

> <W(PB)>
-64.982

> <W(SA)>
2.037

> <Valence>
2.779

> <Coulomb>
6.474

> <VdW>
0.815

> <VdW6>
-5.088

> <VdW12>
5.902

> <Bond>
0.078

> <Angle>
2.651

> <Pdih>
0.050

> <Idih>
0.000

> <Tether>
0.000

$$$$
VeraChem MOL file


 17 16  0  0  0  0  0  0  0  0999 V2000     
   21.3279   18.8189   19.3906 C   0  0  0  0  0  0  0  0  0  0  0  0
   21.7259   17.8195   18.8244 O   0  5  0  0  0  0  0  0  0  0  0  0
   21.7297   19.9352   19.1205 O   0  0  0  0  0  0  0  0  0  0  0  0
   20.3022   18.6439   20.4543 C   0  0  0  0  0  0  0  0  0  0  0  0
   19.9873   17.6206   20.6451 H   0  0  0  0  0  0  0  0  0  0  0  0
   19.7731   19.6651   21.1662 C   0  0  0  0  0  0  0  0  0  0  0  0
   20.0857   20.6930   20.9840 H   0  0  0  0  0  0  0  0  0  0  0  0
   18.7311   19.4834   22.2504 C   0  0  0  0  0  0  0  0  0  0  0  0
   18.2539   18.4975   22.1666 H   0  0  0  0  0  0  0  0  0  0  0  0
   17.9317   20.2226   22.1067 H   0  0  0  0  0  0  0  0  0  0  0  0
   19.3228   19.6547   23.6667 C   0  0  0  0  0  0  0  0  0  0  0  0
   19.8026   20.6397   23.7506 H   0  0  0  0  0  0  0  0  0  0  0  0
   18.5054   19.6403   24.4008 H   0  0  0  0  0  0  0  0  0  0  0  0
   20.3389   18.5489   24.0236 C   0  0  0  0  0  0  0  0  0  0  0  0
   21.2044   18.5733   23.3488 H   0  0  0  0  0  0  0  0  0  0  0  0
   20.7081   18.6802   25.0489 H   0  0  0  0  0  0  0  0  0  0  0  0
   19.8781   17.5550   23.9537 H   0  0  0  0  0  0  0  0  0  0  0  0
  1  2  1  0  0  0  0
  1  3  2  0  0  0  0
  1  4  1  0  0  0  0
  4  5  1  0  0  0  0
  4  6  2  0  0  0  0
  6  7  1  0  0  0  0
  6  8  1  0  0  0  0
  8  9  1  0  0  0  0
  8 10  1  0  0  0  0
  8 11  1  0  0  0  0
 11 12  1  0  0  0  0
 11 13  1  0  0  0  0
 11 14  1  0  0  0  0
 14 15  1  0  0  0  0
 14 16  1  0  0  0  0
 14 17  1  0  0  0  0
M  END
> <VConfSearch Rank>
868

> <Conf_Id>
45

> <Delta U+W>
0.562

> <U+W>
-52.846

> <U>
10.243

> <W>
-63.089

> <W(PB)>
-65.116

> <W(SA)>
2.026

> <Valence>
2.822

> <Coulomb>
6.637

> <VdW>
0.785

> <VdW6>
-5.216

> <VdW12>
6.001

> <Bond>
0.080

> <Angle>
2.678

> <Pdih>
0.064

> <Idih>
0.000

> <Tether>
0.000

$$$$
VeraChem MOL file


 17 16  0  0  0  0  0  0  0  0999 V2000     
   21.5832   17.8150   19.2391 C   0  0  0  0  0  0  0  0  0  0  0  0
   22.7504   17.9142   18.9142 O   0  5  0  0  0  0  0  0  0  0  0  0
   20.7235   17.3879   18.4915 O   0  0  0  0  0  0  0  0  0  0  0  0
   21.2145   18.2394   20.6168 C   0  0  0  0  0  0  0  0  0  0  0  0
   22.0299   18.6112   21.2330 H   0  0  0  0  0  0  0  0  0  0  0  0
   19.9567   18.1853   21.1109 C   0  0  0  0  0  0  0  0  0  0  0  0
   19.1319   17.8167   20.5013 H   0  0  0  0  0  0  0  0  0  0  0  0
   19.5898   18.6210   22.5126 C   0  0  0  0  0  0  0  0  0  0  0  0
   20.3813   18.3286   23.2161 H   0  0  0  0  0  0  0  0  0  0  0  0
   18.6783   18.0988   22.8333 H   0  0  0  0  0  0  0  0  0  0  0  0
   19.3646   20.1450   22.5865 C   0  0  0  0  0  0  0  0  0  0  0  0
   20.2771   20.6690   22.2699 H   0  0  0  0  0  0  0  0  0  0  0  0
   18.5711   20.4347   21.8835 H   0  0  0  0  0  0  0  0  0  0  0  0
   18.9809   20.5960   24.0102 C   0  0  0  0  0  0  0  0  0  0  0  0
   18.0529   20.1104   24.3395 H   0  0  0  0  0  0  0  0  0  0  0  0
   19.7727   20.3455   24.7284 H   0  0  0  0  0  0  0  0  0  0  0  0
   18.8250   21.6822   24.0430 H   0  0  0  0  0  0  0  0  0  0  0  0
  1  2  1  0  0  0  0
  1  3  2  0  0  0  0
  1  4  1  0  0  0  0
  4  5  1  0  0  0  0
  4  6  2  0  0  0  0
  6  7  1  0  0  0  0
  6  8  1  0  0  0  0
  8  9  1  0  0  0  0
  8 10  1  0  0  0  0
  8 11  1  0  0  0  0
 11 12  1  0  0  0  0
 11 13  1  0  0  0  0
 11 14  1  0  0  0  0
 14 15  1  0  0  0  0
 14 16  1  0  0  0  0
 14 17  1  0  0  0  0
M  END
> <VConfSearch Rank>
869

> <Conf_Id>
36

> <Delta U+W>
0.000

> <U+W>
-53.409

> <U>
9.048

> <W>
-62.457

> <W(PB)>
-64.540

> <W(SA)>
2.084

> <Valence>
2.652

> <Coulomb>
5.578

> <VdW>
0.818

> <VdW6>
-4.534

> <VdW12>
5.352

> <Bond>
0.063

> <Angle>
2.579

> <Pdih>
0.010

> <Idih>
0.000

> <Tether>
0.000

$$$$
VeraChem MOL file


 17 16  0  0  0  0  0  0  0  0999 V2000     
   18.1829   16.4019   22.7973 C   0  0  0  0  0  0  0  0  0  0  0  0
   17.2597   16.3291   22.0081 O   0  5  0  0  0  0  0  0  0  0  0  0
   18.2410   15.7304   23.8089 O   0  0  0  0  0  0  0  0  0  0  0  0
   19.3024   17.3460   22.5335 C   0  0  0  0  0  0  0  0  0  0  0  0
   20.0953   17.3617   23.2778 H   0  0  0  0  0  0  0  0  0  0  0  0
   19.3683   18.1533   21.4504 C   0  0  0  0  0  0  0  0  0  0  0  0
   18.5783   18.1472   20.6997 H   0  0  0  0  0  0  0  0  0  0  0  0
   20.5096   19.1120   21.1906 C   0  0  0  0  0  0  0  0  0  0  0  0
   20.5835   19.3125   20.1133 H   0  0  0  0  0  0  0  0  0  0  0  0
   21.4616   18.6522   21.4890 H   0  0  0  0  0  0  0  0  0  0  0  0
   20.3122   20.4397   21.9503 C   0  0  0  0  0  0  0  0  0  0  0  0
   19.3604   20.8988   21.6487 H   0  0  0  0  0  0  0  0  0  0  0  0
   20.2421   20.2413   23.0289 H   0  0  0  0  0  0  0  0  0  0  0  0
   21.4669   21.4261   21.6834 C   0  0  0  0  0  0  0  0  0  0  0  0
   21.5391   21.6666   20.6146 H   0  0  0  0  0  0  0  0  0  0  0  0
   21.3089   22.3639   22.2318 H   0  0  0  0  0  0  0  0  0  0  0  0
   22.4274   21.0029   22.0055 H   0  0  0  0  0  0  0  0  0  0  0  0
  1  2  1  0  0  0  0
  1  3  2  0  0  0  0
  1  4  1  0  0  0  0
  4  5  1  0  0  0  0
  4  6  2  0  0  0  0
  6  7  1  0  0  0  0
  6  8  1  0  0  0  0
  8  9  1  0  0  0  0
  8 10  1  0  0  0  0
  8 11  1  0  0  0  0
 11 12  1  0  0  0  0
 11 13  1  0  0  0  0
 11 14  1  0  0  0  0
 14 15  1  0  0  0  0
 14 16  1  0  0  0  0
 14 17  1  0  0  0  0
M  END
> <VConfSearch Rank>
870

> <Conf_Id>
1

> <Delta U+W>
0.030

> <U+W>
-53.378

> <U>
9.048

> <W>
-62.426

> <W(PB)>
-64.506

> <W(SA)>
2.080

> <Valence>
2.652

> <Coulomb>
5.578

> <VdW>
0.818

> <VdW6>
-4.535

> <VdW12>
5.352

> <Bond>
0.063

> <Angle>
2.579

> <Pdih>
0.010

> <Idih>
0.000

> <Tether>
0.000

$$$$
VeraChem MOL file


 17 16  0  0  0  0  0  0  0  0999 V2000     
   18.5890   16.5944   20.9347 C   0  0  0  0  0  0  0  0  0  0  0  0
   19.5483   15.9097   20.6324 O   0  5  0  0  0  0  0  0  0  0  0  0
   17.4627   16.1470   21.0297 O   0  0  0  0  0  0  0  0  0  0  0  0
   18.7765   18.0463   21.2011 C   0  0  0  0  0  0  0  0  0  0  0  0
   17.8787   18.6003   21.4652 H   0  0  0  0  0  0  0  0  0  0  0  0
   19.9711   18.6767   21.1337 C   0  0  0  0  0  0  0  0  0  0  0  0
   20.8775   18.1306   20.8734 H   0  0  0  0  0  0  0  0  0  0  0  0
   20.1549   20.1542   21.4101 C   0  0  0  0  0  0  0  0  0  0  0  0
   19.3222   20.7179   20.9681 H   0  0  0  0  0  0  0  0  0  0  0  0
   21.0662   20.5156   20.9150 H   0  0  0  0  0  0  0  0  0  0  0  0
   20.2306   20.4644   22.9213 C   0  0  0  0  0  0  0  0  0  0  0  0
   20.2570   21.5535   23.0635 H   0  0  0  0  0  0  0  0  0  0  0  0
   19.3194   20.1049   23.4193 H   0  0  0  0  0  0  0  0  0  0  0  0
   21.4714   19.8377   23.5923 C   0  0  0  0  0  0  0  0  0  0  0  0
   22.3957   20.1929   23.1183 H   0  0  0  0  0  0  0  0  0  0  0  0
   21.5115   20.1055   24.6560 H   0  0  0  0  0  0  0  0  0  0  0  0
   21.4491   18.7423   23.5218 H   0  0  0  0  0  0  0  0  0  0  0  0
  1  2  1  0  0  0  0
  1  3  2  0  0  0  0
  1  4  1  0  0  0  0
  4  5  1  0  0  0  0
  4  6  2  0  0  0  0
  6  7  1  0  0  0  0
  6  8  1  0  0  0  0
  8  9  1  0  0  0  0
  8 10  1  0  0  0  0
  8 11  1  0  0  0  0
 11 12  1  0  0  0  0
 11 13  1  0  0  0  0
 11 14  1  0  0  0  0
 14 15  1  0  0  0  0
 14 16  1  0  0  0  0
 14 17  1  0  0  0  0
M  END
> <VConfSearch Rank>
871

> <Conf_Id>
3

> <Delta U+W>
0.531

> <U+W>
-52.878

> <U>
10.067

> <W>
-62.945

> <W(PB)>
-64.982

> <W(SA)>
2.037

> <Valence>
2.779

> <Coulomb>
6.474

> <VdW>
0.815

> <VdW6>
-5.088

> <VdW12>
5.902

> <Bond>
0.078

> <Angle>
2.651

> <Pdih>
0.050

> <Idih>
0.000

> <Tether>
0.000

$$$$
VeraChem MOL file


 17 16  0  0  0  0  0  0  0  0999 V2000     
   19.8038   22.0789   21.6165 C   0  0  0  0  0  0  0  0  0  0  0  0
   20.1056   22.7299   20.6352 O   0  5  0  0  0  0  0  0  0  0  0  0
   19.7069   22.5654   22.7275 O   0  0  0  0  0  0  0  0  0  0  0  0
   19.5434   20.6265   21.4243 C   0  0  0  0  0  0  0  0  0  0  0  0
   19.6475   20.2570   20.4068 H   0  0  0  0  0  0  0  0  0  0  0  0
   19.2017   19.7833   22.4253 C   0  0  0  0  0  0  0  0  0  0  0  0
   19.0989   20.1445   23.4482 H   0  0  0  0  0  0  0  0  0  0  0  0
   18.9399   18.3046   22.2270 C   0  0  0  0  0  0  0  0  0  0  0  0
   18.7621   18.0826   21.1659 H   0  0  0  0  0  0  0  0  0  0  0  0
   18.0171   18.0301   22.7551 H   0  0  0  0  0  0  0  0  0  0  0  0
   20.0978   17.4286   22.7534 C   0  0  0  0  0  0  0  0  0  0  0  0
   20.2781   17.6520   23.8141 H   0  0  0  0  0  0  0  0  0  0  0  0
   19.8002   16.3722   22.7015 H   0  0  0  0  0  0  0  0  0  0  0  0
   21.4023   17.6237   21.9515 C   0  0  0  0  0  0  0  0  0  0  0  0
   21.7667   18.6559   22.0330 H   0  0  0  0  0  0  0  0  0  0  0  0
   22.1899   16.9583   22.3278 H   0  0  0  0  0  0  0  0  0  0  0  0
   21.2469   17.3982   20.8884 H   0  0  0  0  0  0  0  0  0  0  0  0
  1  2  1  0  0  0  0
  1  3  2  0  0  0  0
  1  4  1  0  0  0  0
  4  5  1  0  0  0  0
  4  6  2  0  0  0  0
  6  7  1  0  0  0  0
  6  8  1  0  0  0  0
  8  9  1  0  0  0  0
  8 10  1  0  0  0  0
  8 11  1  0  0  0  0
 11 12  1  0  0  0  0
 11 13  1  0  0  0  0
 11 14  1  0  0  0  0
 14 15  1  0  0  0  0
 14 16  1  0  0  0  0
 14 17  1  0  0  0  0
M  END
> <VConfSearch Rank>
872

> <Conf_Id>
45

> <Delta U+W>
0.562

> <U+W>
-52.846

> <U>
10.243

> <W>
-63.089

> <W(PB)>
-65.116

> <W(SA)>
2.026

> <Valence>
2.822

> <Coulomb>
6.637

> <VdW>
0.785

> <VdW6>
-5.216

> <VdW12>
6.001

> <Bond>
0.080

> <Angle>
2.678

> <Pdih>
0.064

> <Idih>
0.000

> <Tether>
0.000

$$$$
VeraChem MOL file


 17 16  0  0  0  0  0  0  0  0999 V2000     
   22.1060   16.4884   21.8830 C   0  0  0  0  0  0  0  0  0  0  0  0
   22.3400   15.6998   20.9880 O   0  5  0  0  0  0  0  0  0  0  0  0
   22.4576   16.3056   23.0334 O   0  0  0  0  0  0  0  0  0  0  0  0
   21.3564   17.7248   21.5314 C   0  0  0  0  0  0  0  0  0  0  0  0
   21.0721   17.8264   20.4865 H   0  0  0  0  0  0  0  0  0  0  0  0
   21.0265   18.6858   22.4239 C   0  0  0  0  0  0  0  0  0  0  0  0
   21.3043   18.5930   23.4737 H   0  0  0  0  0  0  0  0  0  0  0  0
   20.2621   19.9393   22.0584 C   0  0  0  0  0  0  0  0  0  0  0  0
   20.5901   20.3063   21.0763 H   0  0  0  0  0  0  0  0  0  0  0  0
   20.4913   20.7339   22.7814 H   0  0  0  0  0  0  0  0  0  0  0  0
   18.7411   19.6838   22.0373 C   0  0  0  0  0  0  0  0  0  0  0  0
   18.5097   18.8920   21.3114 H   0  0  0  0  0  0  0  0  0  0  0  0
   18.4152   19.3188   23.0212 H   0  0  0  0  0  0  0  0  0  0  0  0
   17.9541   20.9592   21.6747 C   0  0  0  0  0  0  0  0  0  0  0  0
   18.1429   21.7581   22.4038 H   0  0  0  0  0  0  0  0  0  0  0  0
   18.2394   21.3276   20.6806 H   0  0  0  0  0  0  0  0  0  0  0  0
   16.8749   20.7580   21.6646 H   0  0  0  0  0  0  0  0  0  0  0  0
  1  2  1  0  0  0  0
  1  3  2  0  0  0  0
  1  4  1  0  0  0  0
  4  5  1  0  0  0  0
  4  6  2  0  0  0  0
  6  7  1  0  0  0  0
  6  8  1  0  0  0  0
  8  9  1  0  0  0  0
  8 10  1  0  0  0  0
  8 11  1  0  0  0  0
 11 12  1  0  0  0  0
 11 13  1  0  0  0  0
 11 14  1  0  0  0  0
 14 15  1  0  0  0  0
 14 16  1  0  0  0  0
 14 17  1  0  0  0  0
M  END
> <VConfSearch Rank>
873

> <Conf_Id>
36

> <Delta U+W>
0.000

> <U+W>
-53.409

> <U>
9.048

> <W>
-62.457

> <W(PB)>
-64.540

> <W(SA)>
2.084

> <Valence>
2.652

> <Coulomb>
5.578

> <VdW>
0.818

> <VdW6>
-4.534

> <VdW12>
5.352

> <Bond>
0.063

> <Angle>
2.579

> <Pdih>
0.010

> <Idih>
0.000

> <Tether>
0.000

$$$$
VeraChem MOL file


 17 16  0  0  0  0  0  0  0  0999 V2000     
   18.1361   16.4430   21.0042 C   0  0  0  0  0  0  0  0  0  0  0  0
   18.7250   15.4475   21.3818 O   0  5  0  0  0  0  0  0  0  0  0  0
   17.1765   16.3996   20.2592 O   0  0  0  0  0  0  0  0  0  0  0  0
   18.5911   17.7838   21.4618 C   0  0  0  0  0  0  0  0  0  0  0  0
   18.0215   18.6315   21.0877 H   0  0  0  0  0  0  0  0  0  0  0  0
   19.6429   17.9812   22.2887 C   0  0  0  0  0  0  0  0  0  0  0  0
   20.2218   17.1392   22.6677 H   0  0  0  0  0  0  0  0  0  0  0  0
   20.1002   19.3484   22.7480 C   0  0  0  0  0  0  0  0  0  0  0  0
   20.6345   19.2559   23.7031 H   0  0  0  0  0  0  0  0  0  0  0  0
   19.2299   19.9914   22.9377 H   0  0  0  0  0  0  0  0  0  0  0  0
   21.0206   20.0131   21.7039 C   0  0  0  0  0  0  0  0  0  0  0  0
   21.8914   19.3692   21.5174 H   0  0  0  0  0  0  0  0  0  0  0  0
   20.4861   20.1101   20.7487 H   0  0  0  0  0  0  0  0  0  0  0  0
   21.4986   21.4034   22.1687 C   0  0  0  0  0  0  0  0  0  0  0  0
   22.0642   21.3312   23.1069 H   0  0  0  0  0  0  0  0  0  0  0  0
   22.1517   21.8602   21.4137 H   0  0  0  0  0  0  0  0  0  0  0  0
   20.6472   22.0770   22.3324 H   0  0  0  0  0  0  0  0  0  0  0  0
  1  2  1  0  0  0  0
  1  3  2  0  0  0  0
  1  4  1  0  0  0  0
  4  5  1  0  0  0  0
  4  6  2  0  0  0  0
  6  7  1  0  0  0  0
  6  8  1  0  0  0  0
  8  9  1  0  0  0  0
  8 10  1  0  0  0  0
  8 11  1  0  0  0  0
 11 12  1  0  0  0  0
 11 13  1  0  0  0  0
 11 14  1  0  0  0  0
 14 15  1  0  0  0  0
 14 16  1  0  0  0  0
 14 17  1  0  0  0  0
M  END
> <VConfSearch Rank>
874

> <Conf_Id>
1

> <Delta U+W>
0.030

> <U+W>
-53.378

> <U>
9.048

> <W>
-62.426

> <W(PB)>
-64.506

> <W(SA)>
2.080

> <Valence>
2.652

> <Coulomb>
5.578

> <VdW>
0.818

> <VdW6>
-4.535

> <VdW12>
5.352

> <Bond>
0.063

> <Angle>
2.579

> <Pdih>
0.010

> <Idih>
0.000

> <Tether>
0.000

$$$$
VeraChem MOL file


 17 16  0  0  0  0  0  0  0  0999 V2000     
   16.9509   19.2254   22.3380 C   0  0  0  0  0  0  0  0  0  0  0  0
   16.8563   19.8464   23.3801 O   0  5  0  0  0  0  0  0  0  0  0  0
   16.0185   19.0749   21.5727 O   0  0  0  0  0  0  0  0  0  0  0  0
   18.2534   18.6109   21.9638 C   0  0  0  0  0  0  0  0  0  0  0  0
   18.2692   18.0693   21.0208 H   0  0  0  0  0  0  0  0  0  0  0  0
   19.3726   18.6991   22.7178 C   0  0  0  0  0  0  0  0  0  0  0  0
   19.3688   19.2422   23.6626 H   0  0  0  0  0  0  0  0  0  0  0  0
   20.6959   18.0744   22.3284 C   0  0  0  0  0  0  0  0  0  0  0  0
   20.5207   17.0797   21.8965 H   0  0  0  0  0  0  0  0  0  0  0  0
   21.3110   17.9151   23.2243 H   0  0  0  0  0  0  0  0  0  0  0  0
   21.4767   18.9370   21.3127 C   0  0  0  0  0  0  0  0  0  0  0  0
   22.3716   18.3882   20.9884 H   0  0  0  0  0  0  0  0  0  0  0  0
   20.8642   19.0970   20.4145 H   0  0  0  0  0  0  0  0  0  0  0  0
   21.9052   20.2989   21.8993 C   0  0  0  0  0  0  0  0  0  0  0  0
   22.5297   20.1631   22.7919 H   0  0  0  0  0  0  0  0  0  0  0  0
   22.4854   20.8707   21.1635 H   0  0  0  0  0  0  0  0  0  0  0  0
   21.0316   20.9015   22.1805 H   0  0  0  0  0  0  0  0  0  0  0  0
  1  2  1  0  0  0  0
  1  3  2  0  0  0  0
  1  4  1  0  0  0  0
  4  5  1  0  0  0  0
  4  6  2  0  0  0  0
  6  7  1  0  0  0  0
  6  8  1  0  0  0  0
  8  9  1  0  0  0  0
  8 10  1  0  0  0  0
  8 11  1  0  0  0  0
 11 12  1  0  0  0  0
 11 13  1  0  0  0  0
 11 14  1  0  0  0  0
 14 15  1  0  0  0  0
 14 16  1  0  0  0  0
 14 17  1  0  0  0  0
M  END
> <VConfSearch Rank>
875

> <Conf_Id>
3

> <Delta U+W>
0.531

> <U+W>
-52.878

> <U>
10.067

> <W>
-62.945

> <W(PB)>
-64.982

> <W(SA)>
2.037

> <Valence>
2.779

> <Coulomb>
6.474

> <VdW>
0.815

> <VdW6>
-5.088

> <VdW12>
5.902

> <Bond>
0.078

> <Angle>
2.651

> <Pdih>
0.050

> <Idih>
0.000

> <Tether>
0.000

$$$$
VeraChem MOL file


 17 16  0  0  0  0  0  0  0  0999 V2000     
   17.0416   19.0023   22.7782 C   0  0  0  0  0  0  0  0  0  0  0  0
   16.2744   19.9116   23.0279 O   0  5  0  0  0  0  0  0  0  0  0  0
   16.8355   17.8523   23.1180 O   0  0  0  0  0  0  0  0  0  0  0  0
   18.2780   19.3348   22.0200 C   0  0  0  0  0  0  0  0  0  0  0  0
   18.4000   20.3805   21.7475 H   0  0  0  0  0  0  0  0  0  0  0  0
   19.2184   18.4255   21.6759 C   0  0  0  0  0  0  0  0  0  0  0  0
   19.1059   17.3764   21.9481 H   0  0  0  0  0  0  0  0  0  0  0  0
   20.4775   18.7676   20.9064 C   0  0  0  0  0  0  0  0  0  0  0  0
   20.3760   19.7442   20.4139 H   0  0  0  0  0  0  0  0  0  0  0  0
   20.6165   18.0330   20.1020 H   0  0  0  0  0  0  0  0  0  0  0  0
   21.7325   18.7682   21.8064 C   0  0  0  0  0  0  0  0  0  0  0  0
   21.8333   17.7925   22.3016 H   0  0  0  0  0  0  0  0  0  0  0  0
   22.6246   18.8946   21.1775 H   0  0  0  0  0  0  0  0  0  0  0  0
   21.7022   19.8893   22.8671 C   0  0  0  0  0  0  0  0  0  0  0  0
   20.8578   19.7597   23.5565 H   0  0  0  0  0  0  0  0  0  0  0  0
   22.6252   19.8838   23.4612 H   0  0  0  0  0  0  0  0  0  0  0  0
   21.6094   20.8753   22.3936 H   0  0  0  0  0  0  0  0  0  0  0  0
  1  2  1  0  0  0  0
  1  3  2  0  0  0  0
  1  4  1  0  0  0  0
  4  5  1  0  0  0  0
  4  6  2  0  0  0  0
  6  7  1  0  0  0  0
  6  8  1  0  0  0  0
  8  9  1  0  0  0  0
  8 10  1  0  0  0  0
  8 11  1  0  0  0  0
 11 12  1  0  0  0  0
 11 13  1  0  0  0  0
 11 14  1  0  0  0  0
 14 15  1  0  0  0  0
 14 16  1  0  0  0  0
 14 17  1  0  0  0  0
M  END
> <VConfSearch Rank>
876

> <Conf_Id>
45

> <Delta U+W>
0.562

> <U+W>
-52.846

> <U>
10.243

> <W>
-63.089

> <W(PB)>
-65.116

> <W(SA)>
2.026

> <Valence>
2.822

> <Coulomb>
6.637

> <VdW>
0.785

> <VdW6>
-5.216

> <VdW12>
6.001

> <Bond>
0.080

> <Angle>
2.678

> <Pdih>
0.064

> <Idih>
0.000

> <Tether>
0.000

$$$$
VeraChem MOL file


 17 16  0  0  0  0  0  0  0  0999 V2000     
   23.2684   19.8126   21.5039 C   0  0  0  0  0  0  0  0  0  0  0  0
   23.8748   20.0905   20.4876 O   0  5  0  0  0  0  0  0  0  0  0  0
   23.8244   19.5160   22.5447 O   0  0  0  0  0  0  0  0  0  0  0  0
   21.7818   19.8449   21.4481 C   0  0  0  0  0  0  0  0  0  0  0  0
   21.3487   20.1175   20.4885 H   0  0  0  0  0  0  0  0  0  0  0  0
   20.9817   19.5578   22.5000 C   0  0  0  0  0  0  0  0  0  0  0  0
   21.4051   19.2812   23.4654 H   0  0  0  0  0  0  0  0  0  0  0  0
   19.4705   19.5909   22.4343 C   0  0  0  0  0  0  0  0  0  0  0  0
   19.1399   20.4336   21.8119 H   0  0  0  0  0  0  0  0  0  0  0  0
   19.0624   19.7655   23.4390 H   0  0  0  0  0  0  0  0  0  0  0  0
   18.9036   18.2725   21.8690 C   0  0  0  0  0  0  0  0  0  0  0  0
   19.3077   18.0984   20.8621 H   0  0  0  0  0  0  0  0  0  0  0  0
   19.2339   17.4314   22.4943 H   0  0  0  0  0  0  0  0  0  0  0  0
   17.3631   18.2946   21.8076 C   0  0  0  0  0  0  0  0  0  0  0  0
   16.9319   18.4356   22.8074 H   0  0  0  0  0  0  0  0  0  0  0  0
   17.0073   19.1087   21.1626 H   0  0  0  0  0  0  0  0  0  0  0  0
   16.9786   17.3492   21.4031 H   0  0  0  0  0  0  0  0  0  0  0  0
  1  2  1  0  0  0  0
  1  3  2  0  0  0  0
  1  4  1  0  0  0  0
  4  5  1  0  0  0  0
  4  6  2  0  0  0  0
  6  7  1  0  0  0  0
  6  8  1  0  0  0  0
  8  9  1  0  0  0  0
  8 10  1  0  0  0  0
  8 11  1  0  0  0  0
 11 12  1  0  0  0  0
 11 13  1  0  0  0  0
 11 14  1  0  0  0  0
 14 15  1  0  0  0  0
 14 16  1  0  0  0  0
 14 17  1  0  0  0  0
M  END
> <VConfSearch Rank>
877

> <Conf_Id>
36

> <Delta U+W>
0.000

> <U+W>
-53.409

> <U>
9.048

> <W>
-62.457

> <W(PB)>
-64.540

> <W(SA)>
2.084

> <Valence>
2.652

> <Coulomb>
5.578

> <VdW>
0.818

> <VdW6>
-4.534

> <VdW12>
5.352

> <Bond>
0.063

> <Angle>
2.579

> <Pdih>
0.010

> <Idih>
0.000

> <Tether>
0.000

$$$$
VeraChem MOL file


 17 16  0  0  0  0  0  0  0  0999 V2000     
   21.6486   19.1528   18.9636 C   0  0  0  0  0  0  0  0  0  0  0  0
   22.6296   18.4443   19.0898 O   0  5  0  0  0  0  0  0  0  0  0  0
   21.4785   19.8800   18.0045 O   0  0  0  0  0  0  0  0  0  0  0  0
   20.5963   19.1451   20.0157 C   0  0  0  0  0  0  0  0  0  0  0  0
   19.7462   19.8008   19.8416 H   0  0  0  0  0  0  0  0  0  0  0  0
   20.6547   18.3876   21.1346 C   0  0  0  0  0  0  0  0  0  0  0  0
   21.5029   17.7289   21.3202 H   0  0  0  0  0  0  0  0  0  0  0  0
   19.5811   18.3871   22.2007 C   0  0  0  0  0  0  0  0  0  0  0  0
   19.6049   17.4341   22.7462 H   0  0  0  0  0  0  0  0  0  0  0  0
   18.5888   18.4556   21.7344 H   0  0  0  0  0  0  0  0  0  0  0  0
   19.7723   19.5537   23.1914 C   0  0  0  0  0  0  0  0  0  0  0  0
   20.7646   19.4818   23.6581 H   0  0  0  0  0  0  0  0  0  0  0  0
   19.7447   20.5083   22.6478 H   0  0  0  0  0  0  0  0  0  0  0  0
   18.6871   19.5547   24.2868 C   0  0  0  0  0  0  0  0  0  0  0  0
   18.7135   18.6230   24.8671 H   0  0  0  0  0  0  0  0  0  0  0  0
   18.8396   20.3909   24.9815 H   0  0  0  0  0  0  0  0  0  0  0  0
   17.6860   19.6571   23.8478 H   0  0  0  0  0  0  0  0  0  0  0  0
  1  2  1  0  0  0  0
  1  3  2  0  0  0  0
  1  4  1  0  0  0  0
  4  5  1  0  0  0  0
  4  6  2  0  0  0  0
  6  7  1  0  0  0  0
  6  8  1  0  0  0  0
  8  9  1  0  0  0  0
  8 10  1  0  0  0  0
  8 11  1  0  0  0  0
 11 12  1  0  0  0  0
 11 13  1  0  0  0  0
 11 14  1  0  0  0  0
 14 15  1  0  0  0  0
 14 16  1  0  0  0  0
 14 17  1  0  0  0  0
M  END
> <VConfSearch Rank>
878

> <Conf_Id>
1

> <Delta U+W>
0.030

> <U+W>
-53.378

> <U>
9.048

> <W>
-62.426

> <W(PB)>
-64.506

> <W(SA)>
2.080

> <Valence>
2.652

> <Coulomb>
5.578

> <VdW>
0.818

> <VdW6>
-4.535

> <VdW12>
5.352

> <Bond>
0.063

> <Angle>
2.579

> <Pdih>
0.010

> <Idih>
0.000

> <Tether>
0.000

$$$$
VeraChem MOL file


 17 16  0  0  0  0  0  0  0  0999 V2000     
   19.7488   16.2062   20.9899 C   0  0  0  0  0  0  0  0  0  0  0  0
   20.5114   15.6254   21.7391 O   0  5  0  0  0  0  0  0  0  0  0  0
   18.9308   15.6270   20.3020 O   0  0  0  0  0  0  0  0  0  0  0  0
   19.8027   17.6899   20.8911 C   0  0  0  0  0  0  0  0  0  0  0  0
   19.0950   18.1459   20.2026 H   0  0  0  0  0  0  0  0  0  0  0  0
   20.6599   18.4616   21.5973 C   0  0  0  0  0  0  0  0  0  0  0  0
   21.3709   18.0155   22.2923 H   0  0  0  0  0  0  0  0  0  0  0  0
   20.7063   19.9717   21.4944 C   0  0  0  0  0  0  0  0  0  0  0  0
   20.5888   20.2731   20.4447 H   0  0  0  0  0  0  0  0  0  0  0  0
   21.6933   20.3367   21.8090 H   0  0  0  0  0  0  0  0  0  0  0  0
   19.6095   20.6525   22.3424 C   0  0  0  0  0  0  0  0  0  0  0  0
   19.6239   21.7336   22.1471 H   0  0  0  0  0  0  0  0  0  0  0  0
   18.6207   20.2902   22.0289 H   0  0  0  0  0  0  0  0  0  0  0  0
   19.7963   20.4106   23.8554 C   0  0  0  0  0  0  0  0  0  0  0  0
   20.7742   20.7769   24.1939 H   0  0  0  0  0  0  0  0  0  0  0  0
   19.0209   20.9351   24.4286 H   0  0  0  0  0  0  0  0  0  0  0  0
   19.7281   19.3418   24.0970 H   0  0  0  0  0  0  0  0  0  0  0  0
  1  2  1  0  0  0  0
  1  3  2  0  0  0  0
  1  4  1  0  0  0  0
  4  5  1  0  0  0  0
  4  6  2  0  0  0  0
  6  7  1  0  0  0  0
  6  8  1  0  0  0  0
  8  9  1  0  0  0  0
  8 10  1  0  0  0  0
  8 11  1  0  0  0  0
 11 12  1  0  0  0  0
 11 13  1  0  0  0  0
 11 14  1  0  0  0  0
 14 15  1  0  0  0  0
 14 16  1  0  0  0  0
 14 17  1  0  0  0  0
M  END
> <VConfSearch Rank>
879

> <Conf_Id>
3

> <Delta U+W>
0.531

> <U+W>
-52.878

> <U>
10.067

> <W>
-62.945

> <W(PB)>
-64.982

> <W(SA)>
2.037

> <Valence>
2.779

> <Coulomb>
6.474

> <VdW>
0.815

> <VdW6>
-5.088

> <VdW12>
5.902

> <Bond>
0.078

> <Angle>
2.651

> <Pdih>
0.050

> <Idih>
0.000

> <Tether>
0.000

$$$$
VeraChem MOL file


 17 16  0  0  0  0  0  0  0  0999 V2000     
   22.1506   18.0268   20.2758 C   0  0  0  0  0  0  0  0  0  0  0  0
   23.0600   18.6153   19.7240 O   0  5  0  0  0  0  0  0  0  0  0  0
   21.7479   16.9394   19.9071 O   0  0  0  0  0  0  0  0  0  0  0  0
   21.5208   18.6837   21.4530 C   0  0  0  0  0  0  0  0  0  0  0  0
   21.9286   19.6535   21.7289 H   0  0  0  0  0  0  0  0  0  0  0  0
   20.5006   18.1460   22.1598 C   0  0  0  0  0  0  0  0  0  0  0  0
   20.0837   17.1766   21.8879 H   0  0  0  0  0  0  0  0  0  0  0  0
   19.8597   18.8186   23.3561 C   0  0  0  0  0  0  0  0  0  0  0  0
   20.5101   19.6126   23.7475 H   0  0  0  0  0  0  0  0  0  0  0  0
   19.7535   18.0843   24.1658 H   0  0  0  0  0  0  0  0  0  0  0  0
   18.4692   19.4032   23.0247 C   0  0  0  0  0  0  0  0  0  0  0  0
   17.8186   18.6101   22.6306 H   0  0  0  0  0  0  0  0  0  0  0  0
   18.0007   19.7616   23.9517 H   0  0  0  0  0  0  0  0  0  0  0  0
   18.5401   20.5680   22.0142 C   0  0  0  0  0  0  0  0  0  0  0  0
   18.9447   20.2324   21.0505 H   0  0  0  0  0  0  0  0  0  0  0  0
   17.5403   20.9832   21.8329 H   0  0  0  0  0  0  0  0  0  0  0  0
   19.1798   21.3764   22.3914 H   0  0  0  0  0  0  0  0  0  0  0  0
  1  2  1  0  0  0  0
  1  3  2  0  0  0  0
  1  4  1  0  0  0  0
  4  5  1  0  0  0  0
  4  6  2  0  0  0  0
  6  7  1  0  0  0  0
  6  8  1  0  0  0  0
  8  9  1  0  0  0  0
  8 10  1  0  0  0  0
  8 11  1  0  0  0  0
 11 12  1  0  0  0  0
 11 13  1  0  0  0  0
 11 14  1  0  0  0  0
 14 15  1  0  0  0  0
 14 16  1  0  0  0  0
 14 17  1  0  0  0  0
M  END
> <VConfSearch Rank>
880

> <Conf_Id>
45

> <Delta U+W>
0.562

> <U+W>
-52.846

> <U>
10.243

> <W>
-63.089

> <W(PB)>
-65.116

> <W(SA)>
2.026

> <Valence>
2.822

> <Coulomb>
6.637

> <VdW>
0.785

> <VdW6>
-5.216

> <VdW12>
6.001

> <Bond>
0.080

> <Angle>
2.678

> <Pdih>
0.064

> <Idih>
0.000

> <Tether>
0.000

$$$$
VeraChem MOL file


 17 16  0  0  0  0  0  0  0  0999 V2000     
   18.6540   21.9348   23.1975 C   0  0  0  0  0  0  0  0  0  0  0  0
   18.7080   22.3639   24.3336 O   0  5  0  0  0  0  0  0  0  0  0  0
   17.8851   22.3720   22.3620 O   0  0  0  0  0  0  0  0  0  0  0  0
   19.5796   20.8271   22.8363 C   0  0  0  0  0  0  0  0  0  0  0  0
   20.2403   20.4832   23.6288 H   0  0  0  0  0  0  0  0  0  0  0  0
   19.6274   20.2537   21.6123 C   0  0  0  0  0  0  0  0  0  0  0  0
   18.9683   20.5889   20.8117 H   0  0  0  0  0  0  0  0  0  0  0  0
   20.5703   19.1260   21.2538 C   0  0  0  0  0  0  0  0  0  0  0  0
   21.5455   19.2849   21.7339 H   0  0  0  0  0  0  0  0  0  0  0  0
   20.7513   19.1284   20.1705 H   0  0  0  0  0  0  0  0  0  0  0  0
   19.9977   17.7583   21.6784 C   0  0  0  0  0  0  0  0  0  0  0  0
   19.8199   17.7528   22.7628 H   0  0  0  0  0  0  0  0  0  0  0  0
   19.0233   17.6008   21.1953 H   0  0  0  0  0  0  0  0  0  0  0  0
   20.9487   16.6025   21.3079 C   0  0  0  0  0  0  0  0  0  0  0  0
   21.1185   16.5654   20.2238 H   0  0  0  0  0  0  0  0  0  0  0  0
   21.9213   16.7199   21.8035 H   0  0  0  0  0  0  0  0  0  0  0  0
   20.5248   15.6384   21.6176 H   0  0  0  0  0  0  0  0  0  0  0  0
  1  2  1  0  0  0  0
  1  3  2  0  0  0  0
  1  4  1  0  0  0  0
  4  5  1  0  0  0  0
  4  6  2  0  0  0  0
  6  7  1  0  0  0  0
  6  8  1  0  0  0  0
  8  9  1  0  0  0  0
  8 10  1  0  0  0  0
  8 11  1  0  0  0  0
 11 12  1  0  0  0  0
 11 13  1  0  0  0  0
 11 14  1  0  0  0  0
 14 15  1  0  0  0  0
 14 16  1  0  0  0  0
 14 17  1  0  0  0  0
M  END
> <VConfSearch Rank>
881

> <Conf_Id>
36

> <Delta U+W>
0.000

> <U+W>
-53.409

> <U>
9.048

> <W>
-62.457

> <W(PB)>
-64.540

> <W(SA)>
2.084

> <Valence>
2.652

> <Coulomb>
5.578

> <VdW>
0.818

> <VdW6>
-4.534

> <VdW12>
5.352

> <Bond>
0.063

> <Angle>
2.579

> <Pdih>
0.010

> <Idih>
0.000

> <Tether>
0.000

$$$$
VeraChem MOL file


 17 16  0  0  0  0  0  0  0  0999 V2000     
   17.6269   16.7542   21.4578 C   0  0  0  0  0  0  0  0  0  0  0  0
   17.8332   16.2469   20.3714 O   0  5  0  0  0  0  0  0  0  0  0  0
   16.6115   16.5568   22.0964 O   0  0  0  0  0  0  0  0  0  0  0  0
   18.6480   17.6586   22.0525 C   0  0  0  0  0  0  0  0  0  0  0  0
   18.4015   18.0784   23.0251 H   0  0  0  0  0  0  0  0  0  0  0  0
   19.8209   17.9677   21.4543 C   0  0  0  0  0  0  0  0  0  0  0  0
   20.0771   17.5545   20.4789 H   0  0  0  0  0  0  0  0  0  0  0  0
   20.8533   18.8899   22.0651 C   0  0  0  0  0  0  0  0  0  0  0  0
   21.8454   18.6522   21.6582 H   0  0  0  0  0  0  0  0  0  0  0  0
   20.9118   18.7224   23.1493 H   0  0  0  0  0  0  0  0  0  0  0  0
   20.5212   20.3697   21.7842 C   0  0  0  0  0  0  0  0  0  0  0  0
   20.4654   20.5351   20.6992 H   0  0  0  0  0  0  0  0  0  0  0  0
   19.5305   20.6103   22.1943 H   0  0  0  0  0  0  0  0  0  0  0  0
   21.5740   21.3159   22.3957 C   0  0  0  0  0  0  0  0  0  0  0  0
   22.5701   21.1176   21.9786 H   0  0  0  0  0  0  0  0  0  0  0  0
   21.3210   22.3633   22.1856 H   0  0  0  0  0  0  0  0  0  0  0  0
   21.6275   21.1923   23.4853 H   0  0  0  0  0  0  0  0  0  0  0  0
  1  2  1  0  0  0  0
  1  3  2  0  0  0  0
  1  4  1  0  0  0  0
  4  5  1  0  0  0  0
  4  6  2  0  0  0  0
  6  7  1  0  0  0  0
  6  8  1  0  0  0  0
  8  9  1  0  0  0  0
  8 10  1  0  0  0  0
  8 11  1  0  0  0  0
 11 12  1  0  0  0  0
 11 13  1  0  0  0  0
 11 14  1  0  0  0  0
 14 15  1  0  0  0  0
 14 16  1  0  0  0  0
 14 17  1  0  0  0  0
M  END
> <VConfSearch Rank>
882

> <Conf_Id>
1

> <Delta U+W>
0.030

> <U+W>
-53.378

> <U>
9.048

> <W>
-62.426

> <W(PB)>
-64.506

> <W(SA)>
2.080

> <Valence>
2.652

> <Coulomb>
5.578

> <VdW>
0.818

> <VdW6>
-4.535

> <VdW12>
5.352

> <Bond>
0.063

> <Angle>
2.579

> <Pdih>
0.010

> <Idih>
0.000

> <Tether>
0.000

$$$$
VeraChem MOL file


 17 16  0  0  0  0  0  0  0  0999 V2000     
   21.9452   20.7930   20.3553 C   0  0  0  0  0  0  0  0  0  0  0  0
   22.9635   20.6913   21.0135 O   0  5  0  0  0  0  0  0  0  0  0  0
   21.9384   21.1956   19.2083 O   0  0  0  0  0  0  0  0  0  0  0  0
   20.6384   20.4174   20.9597 C   0  0  0  0  0  0  0  0  0  0  0  0
   19.7679   20.5329   20.3181 H   0  0  0  0  0  0  0  0  0  0  0  0
   20.4975   19.9541   22.2225 C   0  0  0  0  0  0  0  0  0  0  0  0
   21.3633   19.8313   22.8728 H   0  0  0  0  0  0  0  0  0  0  0  0
   19.1644   19.5702   22.8296 C   0  0  0  0  0  0  0  0  0  0  0  0
   18.3992   20.2986   22.5287 H   0  0  0  0  0  0  0  0  0  0  0  0
   19.2242   19.6238   23.9249 H   0  0  0  0  0  0  0  0  0  0  0  0
   18.7113   18.1557   22.4058 C   0  0  0  0  0  0  0  0  0  0  0  0
   17.6970   17.9742   22.7873 H   0  0  0  0  0  0  0  0  0  0  0  0
   18.6493   18.0993   21.3102 H   0  0  0  0  0  0  0  0  0  0  0  0
   19.6529   17.0510   22.9308 C   0  0  0  0  0  0  0  0  0  0  0  0
   19.7204   17.0803   24.0261 H   0  0  0  0  0  0  0  0  0  0  0  0
   19.2835   16.0590   22.6404 H   0  0  0  0  0  0  0  0  0  0  0  0
   20.6652   17.1660   22.5217 H   0  0  0  0  0  0  0  0  0  0  0  0
  1  2  1  0  0  0  0
  1  3  2  0  0  0  0
  1  4  1  0  0  0  0
  4  5  1  0  0  0  0
  4  6  2  0  0  0  0
  6  7  1  0  0  0  0
  6  8  1  0  0  0  0
  8  9  1  0  0  0  0
  8 10  1  0  0  0  0
  8 11  1  0  0  0  0
 11 12  1  0  0  0  0
 11 13  1  0  0  0  0
 11 14  1  0  0  0  0
 14 15  1  0  0  0  0
 14 16  1  0  0  0  0
 14 17  1  0  0  0  0
M  END
> <VConfSearch Rank>
883

> <Conf_Id>
3

> <Delta U+W>
0.531

> <U+W>
-52.878

> <U>
10.067

> <W>
-62.945

> <W(PB)>
-64.982

> <W(SA)>
2.037

> <Valence>
2.779

> <Coulomb>
6.474

> <VdW>
0.815

> <VdW6>
-5.088

> <VdW12>
5.902

> <Bond>
0.078

> <Angle>
2.651

> <Pdih>
0.050

> <Idih>
0.000

> <Tether>
0.000

$$$$
VeraChem MOL file


 17 16  0  0  0  0  0  0  0  0999 V2000     
   22.5005   18.6111   20.4918 C   0  0  0  0  0  0  0  0  0  0  0  0
   23.2461   19.4088   19.9574 O   0  5  0  0  0  0  0  0  0  0  0  0
   22.4531   17.4372   20.1755 O   0  0  0  0  0  0  0  0  0  0  0  0
   21.6195   19.1158   21.5795 C   0  0  0  0  0  0  0  0  0  0  0  0
   21.7123   20.1741   21.8119 H   0  0  0  0  0  0  0  0  0  0  0  0
   20.7413   18.3424   22.2579 C   0  0  0  0  0  0  0  0  0  0  0  0
   20.6393   17.2819   22.0289 H   0  0  0  0  0  0  0  0  0  0  0  0
   19.8437   18.8597   23.3629 C   0  0  0  0  0  0  0  0  0  0  0  0
   20.2093   19.8255   23.7374 H   0  0  0  0  0  0  0  0  0  0  0  0
   19.8867   18.1665   24.2136 H   0  0  0  0  0  0  0  0  0  0  0  0
   18.3751   19.0023   22.9068 C   0  0  0  0  0  0  0  0  0  0  0  0
   18.0094   18.0372   22.5295 H   0  0  0  0  0  0  0  0  0  0  0  0
   17.7527   19.2556   23.7761 H   0  0  0  0  0  0  0  0  0  0  0  0
   18.1921   20.0872   21.8241 C   0  0  0  0  0  0  0  0  0  0  0  0
   18.7500   19.8355   20.9127 H   0  0  0  0  0  0  0  0  0  0  0  0
   17.1332   20.1876   21.5532 H   0  0  0  0  0  0  0  0  0  0  0  0
   18.5445   21.0631   22.1828 H   0  0  0  0  0  0  0  0  0  0  0  0
  1  2  1  0  0  0  0
  1  3  2  0  0  0  0
  1  4  1  0  0  0  0
  4  5  1  0  0  0  0
  4  6  2  0  0  0  0
  6  7  1  0  0  0  0
  6  8  1  0  0  0  0
  8  9  1  0  0  0  0
  8 10  1  0  0  0  0
  8 11  1  0  0  0  0
 11 12  1  0  0  0  0
 11 13  1  0  0  0  0
 11 14  1  0  0  0  0
 14 15  1  0  0  0  0
 14 16  1  0  0  0  0
 14 17  1  0  0  0  0
M  END
> <VConfSearch Rank>
884

> <Conf_Id>
45

> <Delta U+W>
0.562

> <U+W>
-52.846

> <U>
10.243

> <W>
-63.089

> <W(PB)>
-65.116

> <W(SA)>
2.026

> <Valence>
2.822

> <Coulomb>
6.637

> <VdW>
0.785

> <VdW6>
-5.216

> <VdW12>
6.001

> <Bond>
0.080

> <Angle>
2.678

> <Pdih>
0.064

> <Idih>
0.000

> <Tether>
0.000

$$$$
VeraChem MOL file


 17 16  0  0  0  0  0  0  0  0999 V2000     
   17.6337   21.3453   22.8349 C   0  0  0  0  0  0  0  0  0  0  0  0
   16.4278   21.2928   22.6906 O   0  5  0  0  0  0  0  0  0  0  0  0
   18.2168   22.3636   23.1563 O   0  0  0  0  0  0  0  0  0  0  0  0
   18.4088   20.0962   22.6040 C   0  0  0  0  0  0  0  0  0  0  0  0
   17.8270   19.2224   22.3193 H   0  0  0  0  0  0  0  0  0  0  0  0
   19.7528   20.0096   22.7270 C   0  0  0  0  0  0  0  0  0  0  0  0
   20.3456   20.8794   23.0094 H   0  0  0  0  0  0  0  0  0  0  0  0
   20.5337   18.7358   22.4883 C   0  0  0  0  0  0  0  0  0  0  0  0
   19.9726   17.8735   22.8734 H   0  0  0  0  0  0  0  0  0  0  0  0
   21.4765   18.7715   23.0506 H   0  0  0  0  0  0  0  0  0  0  0  0
   20.8344   18.5337   20.9890 C   0  0  0  0  0  0  0  0  0  0  0  0
   19.8919   18.4935   20.4254 H   0  0  0  0  0  0  0  0  0  0  0  0
   21.3974   19.3964   20.6066 H   0  0  0  0  0  0  0  0  0  0  0  0
   21.6384   17.2421   20.7382 C   0  0  0  0  0  0  0  0  0  0  0  0
   22.6010   17.2697   21.2655 H   0  0  0  0  0  0  0  0  0  0  0  0
   21.0831   16.3603   21.0840 H   0  0  0  0  0  0  0  0  0  0  0  0
   21.8424   17.1154   19.6670 H   0  0  0  0  0  0  0  0  0  0  0  0
  1  2  1  0  0  0  0
  1  3  2  0  0  0  0
  1  4  1  0  0  0  0
  4  5  1  0  0  0  0
  4  6  2  0  0  0  0
  6  7  1  0  0  0  0
  6  8  1  0  0  0  0
  8  9  1  0  0  0  0
  8 10  1  0  0  0  0
  8 11  1  0  0  0  0
 11 12  1  0  0  0  0
 11 13  1  0  0  0  0
 11 14  1  0  0  0  0
 14 15  1  0  0  0  0
 14 16  1  0  0  0  0
 14 17  1  0  0  0  0
M  END
> <VConfSearch Rank>
885

> <Conf_Id>
36

> <Delta U+W>
0.000

> <U+W>
-53.409

> <U>
9.048

> <W>
-62.457

> <W(PB)>
-64.540

> <W(SA)>
2.084

> <Valence>
2.652

> <Coulomb>
5.578

> <VdW>
0.818

> <VdW6>
-4.534

> <VdW12>
5.352

> <Bond>
0.063

> <Angle>
2.579

> <Pdih>
0.010

> <Idih>
0.000

> <Tether>
0.000

$$$$
VeraChem MOL file


 17 16  0  0  0  0  0  0  0  0999 V2000     
   19.8035   17.3572   19.0293 C   0  0  0  0  0  0  0  0  0  0  0  0
   18.6198   17.1823   18.8087 O   0  5  0  0  0  0  0  0  0  0  0  0
   20.6816   16.7961   18.4033 O   0  0  0  0  0  0  0  0  0  0  0  0
   20.2194   18.2956   20.1066 C   0  0  0  0  0  0  0  0  0  0  0  0
   21.2916   18.4064   20.2517 H   0  0  0  0  0  0  0  0  0  0  0  0
   19.3520   18.9857   20.8815 C   0  0  0  0  0  0  0  0  0  0  0  0
   18.2757   18.8805   20.7461 H   0  0  0  0  0  0  0  0  0  0  0  0
   19.7833   19.9367   21.9764 C   0  0  0  0  0  0  0  0  0  0  0  0
   18.9927   20.6787   22.1516 H   0  0  0  0  0  0  0  0  0  0  0  0
   20.6729   20.4972   21.6581 H   0  0  0  0  0  0  0  0  0  0  0  0
   20.0843   19.1838   23.2884 C   0  0  0  0  0  0  0  0  0  0  0  0
   19.1925   18.6257   23.6059 H   0  0  0  0  0  0  0  0  0  0  0  0
   20.8781   18.4437   23.1158 H   0  0  0  0  0  0  0  0  0  0  0  0
   20.5158   20.1473   24.4122 C   0  0  0  0  0  0  0  0  0  0  0  0
   19.7261   20.8792   24.6271 H   0  0  0  0  0  0  0  0  0  0  0  0
   20.7254   19.5939   25.3369 H   0  0  0  0  0  0  0  0  0  0  0  0
   21.4247   20.6957   24.1321 H   0  0  0  0  0  0  0  0  0  0  0  0
  1  2  1  0  0  0  0
  1  3  2  0  0  0  0
  1  4  1  0  0  0  0
  4  5  1  0  0  0  0
  4  6  2  0  0  0  0
  6  7  1  0  0  0  0
  6  8  1  0  0  0  0
  8  9  1  0  0  0  0
  8 10  1  0  0  0  0
  8 11  1  0  0  0  0
 11 12  1  0  0  0  0
 11 13  1  0  0  0  0
 11 14  1  0  0  0  0
 14 15  1  0  0  0  0
 14 16  1  0  0  0  0
 14 17  1  0  0  0  0
M  END
> <VConfSearch Rank>
886

> <Conf_Id>
1

> <Delta U+W>
0.030

> <U+W>
-53.378

> <U>
9.048

> <W>
-62.426

> <W(PB)>
-64.506

> <W(SA)>
2.080

> <Valence>
2.652

> <Coulomb>
5.578

> <VdW>
0.818

> <VdW6>
-4.535

> <VdW12>
5.352

> <Bond>
0.063

> <Angle>
2.579

> <Pdih>
0.010

> <Idih>
0.000

> <Tether>
0.000

$$$$
VeraChem MOL file


 17 16  0  0  0  0  0  0  0  0999 V2000     
   17.6180   21.0126   22.2562 C   0  0  0  0  0  0  0  0  0  0  0  0
   17.8293   21.5100   23.3463 O   0  5  0  0  0  0  0  0  0  0  0  0
   16.8408   21.4901   21.4525 O   0  0  0  0  0  0  0  0  0  0  0  0
   18.3271   19.7634   21.8680 C   0  0  0  0  0  0  0  0  0  0  0  0
   18.0921   19.3712   20.8812 H   0  0  0  0  0  0  0  0  0  0  0  0
   19.2180   19.1252   22.6604 C   0  0  0  0  0  0  0  0  0  0  0  0
   19.4634   19.5113   23.6495 H   0  0  0  0  0  0  0  0  0  0  0  0
   19.9388   17.8561   22.2569 C   0  0  0  0  0  0  0  0  0  0  0  0
   19.2424   17.1878   21.7325 H   0  0  0  0  0  0  0  0  0  0  0  0
   20.2679   17.3131   23.1532 H   0  0  0  0  0  0  0  0  0  0  0  0
   21.1550   18.1351   21.3467 C   0  0  0  0  0  0  0  0  0  0  0  0
   21.5724   17.1790   21.0018 H   0  0  0  0  0  0  0  0  0  0  0  0
   20.8287   18.6773   20.4484 H   0  0  0  0  0  0  0  0  0  0  0  0
   22.2601   18.9379   22.0657 C   0  0  0  0  0  0  0  0  0  0  0  0
   22.6109   18.4082   22.9610 H   0  0  0  0  0  0  0  0  0  0  0  0
   23.1213   19.0888   21.4020 H   0  0  0  0  0  0  0  0  0  0  0  0
   21.8951   19.9266   22.3732 H   0  0  0  0  0  0  0  0  0  0  0  0
  1  2  1  0  0  0  0
  1  3  2  0  0  0  0
  1  4  1  0  0  0  0
  4  5  1  0  0  0  0
  4  6  2  0  0  0  0
  6  7  1  0  0  0  0
  6  8  1  0  0  0  0
  8  9  1  0  0  0  0
  8 10  1  0  0  0  0
  8 11  1  0  0  0  0
 11 12  1  0  0  0  0
 11 13  1  0  0  0  0
 11 14  1  0  0  0  0
 14 15  1  0  0  0  0
 14 16  1  0  0  0  0
 14 17  1  0  0  0  0
M  END
> <VConfSearch Rank>
887

> <Conf_Id>
3

> <Delta U+W>
0.531

> <U+W>
-52.878

> <U>
10.067

> <W>
-62.945

> <W(PB)>
-64.982

> <W(SA)>
2.037

> <Valence>
2.779

> <Coulomb>
6.474

> <VdW>
0.815

> <VdW6>
-5.088

> <VdW12>
5.902

> <Bond>
0.078

> <Angle>
2.651

> <Pdih>
0.050

> <Idih>
0.000

> <Tether>
0.000

$$$$
VeraChem MOL file


 17 16  0  0  0  0  0  0  0  0999 V2000     
   22.2744   21.0092   21.6370 C   0  0  0  0  0  0  0  0  0  0  0  0
   23.3341   20.8284   21.0694 O   0  5  0  0  0  0  0  0  0  0  0  0
   22.1019   21.9027   22.4446 O   0  0  0  0  0  0  0  0  0  0  0  0
   21.1537   20.0864   21.3107 C   0  0  0  0  0  0  0  0  0  0  0  0
   21.3755   19.3108   20.5813 H   0  0  0  0  0  0  0  0  0  0  0  0
   19.9234   20.1688   21.8668 C   0  0  0  0  0  0  0  0  0  0  0  0
   19.6938   20.9405   22.6011 H   0  0  0  0  0  0  0  0  0  0  0  0
   18.7853   19.2261   21.5346 C   0  0  0  0  0  0  0  0  0  0  0  0
   18.9868   18.6929   20.5955 H   0  0  0  0  0  0  0  0  0  0  0  0
   17.8728   19.8125   21.3629 H   0  0  0  0  0  0  0  0  0  0  0  0
   18.5202   18.2064   22.6637 C   0  0  0  0  0  0  0  0  0  0  0  0
   18.3212   18.7389   23.6041 H   0  0  0  0  0  0  0  0  0  0  0  0
   17.6106   17.6375   22.4267 H   0  0  0  0  0  0  0  0  0  0  0  0
   19.6921   17.2213   22.8616 C   0  0  0  0  0  0  0  0  0  0  0  0
   20.6063   17.7488   23.1634 H   0  0  0  0  0  0  0  0  0  0  0  0
   19.4529   16.4888   23.6433 H   0  0  0  0  0  0  0  0  0  0  0  0
   19.9037   16.6719   21.9351 H   0  0  0  0  0  0  0  0  0  0  0  0
  1  2  1  0  0  0  0
  1  3  2  0  0  0  0
  1  4  1  0  0  0  0
  4  5  1  0  0  0  0
  4  6  2  0  0  0  0
  6  7  1  0  0  0  0
  6  8  1  0  0  0  0
  8  9  1  0  0  0  0
  8 10  1  0  0  0  0
  8 11  1  0  0  0  0
 11 12  1  0  0  0  0
 11 13  1  0  0  0  0
 11 14  1  0  0  0  0
 14 15  1  0  0  0  0
 14 16  1  0  0  0  0
 14 17  1  0  0  0  0
M  END
> <VConfSearch Rank>
888

> <Conf_Id>
45

> <Delta U+W>
0.562

> <U+W>
-52.846

> <U>
10.243

> <W>
-63.089

> <W(PB)>
-65.116

> <W(SA)>
2.026

> <Valence>
2.822

> <Coulomb>
6.637

> <VdW>
0.785

> <VdW6>
-5.216

> <VdW12>
6.001

> <Bond>
0.080

> <Angle>
2.678

> <Pdih>
0.064

> <Idih>
0.000

> <Tether>
0.000

$$$$
VeraChem MOL file


 17 16  0  0  0  0  0  0  0  0999 V2000     
   21.5306   16.7322   20.0904 C   0  0  0  0  0  0  0  0  0  0  0  0
   22.3190   16.8535   19.1730 O   0  5  0  0  0  0  0  0  0  0  0  0
   20.9849   15.6781   20.3575 O   0  0  0  0  0  0  0  0  0  0  0  0
   21.2373   17.9398   20.9089 C   0  0  0  0  0  0  0  0  0  0  0  0
   21.7581   18.8489   20.6172 H   0  0  0  0  0  0  0  0  0  0  0  0
   20.3819   17.9507   21.9565 C   0  0  0  0  0  0  0  0  0  0  0  0
   19.8530   17.0460   22.2559 H   0  0  0  0  0  0  0  0  0  0  0  0
   20.0876   19.1837   22.7825 C   0  0  0  0  0  0  0  0  0  0  0  0
   21.0060   19.7698   22.9229 H   0  0  0  0  0  0  0  0  0  0  0  0
   19.7521   18.8837   23.7844 H   0  0  0  0  0  0  0  0  0  0  0  0
   19.0070   20.0607   22.1175 C   0  0  0  0  0  0  0  0  0  0  0  0
   19.3429   20.3652   21.1165 H   0  0  0  0  0  0  0  0  0  0  0  0
   18.0887   19.4729   21.9800 H   0  0  0  0  0  0  0  0  0  0  0  0
   18.6943   21.3150   22.9581 C   0  0  0  0  0  0  0  0  0  0  0  0
   18.3256   21.0384   23.9546 H   0  0  0  0  0  0  0  0  0  0  0  0
   19.5904   21.9366   23.0844 H   0  0  0  0  0  0  0  0  0  0  0  0
   17.9242   21.9259   22.4694 H   0  0  0  0  0  0  0  0  0  0  0  0
  1  2  1  0  0  0  0
  1  3  2  0  0  0  0
  1  4  1  0  0  0  0
  4  5  1  0  0  0  0
  4  6  2  0  0  0  0
  6  7  1  0  0  0  0
  6  8  1  0  0  0  0
  8  9  1  0  0  0  0
  8 10  1  0  0  0  0
  8 11  1  0  0  0  0
 11 12  1  0  0  0  0
 11 13  1  0  0  0  0
 11 14  1  0  0  0  0
 14 15  1  0  0  0  0
 14 16  1  0  0  0  0
 14 17  1  0  0  0  0
M  END
> <VConfSearch Rank>
889

> <Conf_Id>
36

> <Delta U+W>
0.000

> <U+W>
-53.409

> <U>
9.048

> <W>
-62.457

> <W(PB)>
-64.540

> <W(SA)>
2.084

> <Valence>
2.652

> <Coulomb>
5.578

> <VdW>
0.818

> <VdW6>
-4.534

> <VdW12>
5.352

> <Bond>
0.063

> <Angle>
2.579

> <Pdih>
0.010

> <Idih>
0.000

> <Tether>
0.000

$$$$
VeraChem MOL file


 17 16  0  0  0  0  0  0  0  0999 V2000     
   18.0184   16.3839   21.6812 C   0  0  0  0  0  0  0  0  0  0  0  0
   17.3954   16.4930   20.6418 O   0  5  0  0  0  0  0  0  0  0  0  0
   17.7564   15.5470   22.5230 O   0  0  0  0  0  0  0  0  0  0  0  0
   19.1560   17.3029   21.9561 C   0  0  0  0  0  0  0  0  0  0  0  0
   19.6702   17.1517   22.9025 H   0  0  0  0  0  0  0  0  0  0  0  0
   19.5571   18.2796   21.1110 C   0  0  0  0  0  0  0  0  0  0  0  0
   19.0476   18.4412   20.1612 H   0  0  0  0  0  0  0  0  0  0  0  0
   20.7140   19.2112   21.3990 C   0  0  0  0  0  0  0  0  0  0  0  0
   21.1258   19.5894   20.4536 H   0  0  0  0  0  0  0  0  0  0  0  0
   21.5250   18.6607   21.8951 H   0  0  0  0  0  0  0  0  0  0  0  0
   20.2741   20.3972   22.2816 C   0  0  0  0  0  0  0  0  0  0  0  0
   19.4645   20.9475   21.7824 H   0  0  0  0  0  0  0  0  0  0  0  0
   19.8656   20.0206   23.2297 H   0  0  0  0  0  0  0  0  0  0  0  0
   21.4458   21.3565   22.5721 C   0  0  0  0  0  0  0  0  0  0  0  0
   21.8530   21.7728   21.6413 H   0  0  0  0  0  0  0  0  0  0  0  0
   21.1138   22.1932   23.2006 H   0  0  0  0  0  0  0  0  0  0  0  0
   22.2569   20.8376   23.0995 H   0  0  0  0  0  0  0  0  0  0  0  0
  1  2  1  0  0  0  0
  1  3  2  0  0  0  0
  1  4  1  0  0  0  0
  4  5  1  0  0  0  0
  4  6  2  0  0  0  0
  6  7  1  0  0  0  0
  6  8  1  0  0  0  0
  8  9  1  0  0  0  0
  8 10  1  0  0  0  0
  8 11  1  0  0  0  0
 11 12  1  0  0  0  0
 11 13  1  0  0  0  0
 11 14  1  0  0  0  0
 14 15  1  0  0  0  0
 14 16  1  0  0  0  0
 14 17  1  0  0  0  0
M  END
> <VConfSearch Rank>
890

> <Conf_Id>
1

> <Delta U+W>
0.030

> <U+W>
-53.378

> <U>
9.048

> <W>
-62.426

> <W(PB)>
-64.506

> <W(SA)>
2.080

> <Valence>
2.652

> <Coulomb>
5.578

> <VdW>
0.818

> <VdW6>
-4.535

> <VdW12>
5.352

> <Bond>
0.063

> <Angle>
2.579

> <Pdih>
0.010

> <Idih>
0.000

> <Tether>
0.000

$$$$
VeraChem MOL file


 17 16  0  0  0  0  0  0  0  0999 V2000     
   18.1814   16.6269   22.3255 C   0  0  0  0  0  0  0  0  0  0  0  0
   18.9502   15.8368   22.8404 O   0  5  0  0  0  0  0  0  0  0  0  0
   16.9776   16.4588   22.3058 O   0  0  0  0  0  0  0  0  0  0  0  0
   18.7139   17.8584   21.6822 C   0  0  0  0  0  0  0  0  0  0  0  0
   17.9736   18.5213   21.2403 H   0  0  0  0  0  0  0  0  0  0  0  0
   20.0280   18.1739   21.6310 C   0  0  0  0  0  0  0  0  0  0  0  0
   20.7779   17.5186   22.0735 H   0  0  0  0  0  0  0  0  0  0  0  0
   20.5624   19.4313   20.9779 C   0  0  0  0  0  0  0  0  0  0  0  0
   20.0164   19.6219   20.0441 H   0  0  0  0  0  0  0  0  0  0  0  0
   21.6134   19.2862   20.6939 H   0  0  0  0  0  0  0  0  0  0  0  0
   20.4416   20.6673   21.8962 C   0  0  0  0  0  0  0  0  0  0  0  0
   20.7441   21.5624   21.3354 H   0  0  0  0  0  0  0  0  0  0  0  0
   19.3908   20.8158   22.1811 H   0  0  0  0  0  0  0  0  0  0  0  0
   21.3125   20.5487   23.1651 C   0  0  0  0  0  0  0  0  0  0  0  0
   22.3701   20.4122   22.9042 H   0  0  0  0  0  0  0  0  0  0  0  0
   21.2288   21.4564   23.7768 H   0  0  0  0  0  0  0  0  0  0  0  0
   20.9989   19.6969   23.7826 H   0  0  0  0  0  0  0  0  0  0  0  0
  1  2  1  0  0  0  0
  1  3  2  0  0  0  0
  1  4  1  0  0  0  0
  4  5  1  0  0  0  0
  4  6  2  0  0  0  0
  6  7  1  0  0  0  0
  6  8  1  0  0  0  0
  8  9  1  0  0  0  0
  8 10  1  0  0  0  0
  8 11  1  0  0  0  0
 11 12  1  0  0  0  0
 11 13  1  0  0  0  0
 11 14  1  0  0  0  0
 14 15  1  0  0  0  0
 14 16  1  0  0  0  0
 14 17  1  0  0  0  0
M  END
> <VConfSearch Rank>
891

> <Conf_Id>
3

> <Delta U+W>
0.531

> <U+W>
-52.878

> <U>
10.067

> <W>
-62.945

> <W(PB)>
-64.982

> <W(SA)>
2.037

> <Valence>
2.779

> <Coulomb>
6.474

> <VdW>
0.815

> <VdW6>
-5.088

> <VdW12>
5.902

> <Bond>
0.078

> <Angle>
2.651

> <Pdih>
0.050

> <Idih>
0.000

> <Tether>
0.000

$$$$
VeraChem MOL file


 17 16  0  0  0  0  0  0  0  0999 V2000     
   20.3262   16.9532   19.9815 C   0  0  0  0  0  0  0  0  0  0  0  0
   19.6980   16.7594   18.9590 O   0  5  0  0  0  0  0  0  0  0  0  0
   20.9915   16.0893   20.5215 O   0  0  0  0  0  0  0  0  0  0  0  0
   20.2657   18.3151   20.5777 C   0  0  0  0  0  0  0  0  0  0  0  0
   19.6534   19.0389   20.0448 H   0  0  0  0  0  0  0  0  0  0  0  0
   20.9114   18.6706   21.7118 C   0  0  0  0  0  0  0  0  0  0  0  0
   21.5240   17.9506   22.2540 H   0  0  0  0  0  0  0  0  0  0  0  0
   20.8456   20.0572   22.3179 C   0  0  0  0  0  0  0  0  0  0  0  0
   20.4806   20.7845   21.5800 H   0  0  0  0  0  0  0  0  0  0  0  0
   21.8604   20.3790   22.5875 H   0  0  0  0  0  0  0  0  0  0  0  0
   19.9540   20.1044   23.5780 C   0  0  0  0  0  0  0  0  0  0  0  0
   20.3169   19.3752   24.3156 H   0  0  0  0  0  0  0  0  0  0  0  0
   20.0452   21.0948   24.0448 H   0  0  0  0  0  0  0  0  0  0  0  0
   18.4674   19.8313   23.2643 C   0  0  0  0  0  0  0  0  0  0  0  0
   18.3278   18.8225   22.8546 H   0  0  0  0  0  0  0  0  0  0  0  0
   17.8596   19.9116   24.1748 H   0  0  0  0  0  0  0  0  0  0  0  0
   18.0812   20.5541   22.5339 H   0  0  0  0  0  0  0  0  0  0  0  0
  1  2  1  0  0  0  0
  1  3  2  0  0  0  0
  1  4  1  0  0  0  0
  4  5  1  0  0  0  0
  4  6  2  0  0  0  0
  6  7  1  0  0  0  0
  6  8  1  0  0  0  0
  8  9  1  0  0  0  0
  8 10  1  0  0  0  0
  8 11  1  0  0  0  0
 11 12  1  0  0  0  0
 11 13  1  0  0  0  0
 11 14  1  0  0  0  0
 14 15  1  0  0  0  0
 14 16  1  0  0  0  0
 14 17  1  0  0  0  0
M  END
> <VConfSearch Rank>
892

> <Conf_Id>
45

> <Delta U+W>
0.562

> <U+W>
-52.846

> <U>
10.243

> <W>
-63.089

> <W(PB)>
-65.116

> <W(SA)>
2.026

> <Valence>
2.822

> <Coulomb>
6.637

> <VdW>
0.785

> <VdW6>
-5.216

> <VdW12>
6.001

> <Bond>
0.080

> <Angle>
2.678

> <Pdih>
0.064

> <Idih>
0.000

> <Tether>
0.000

$$$$
VeraChem MOL file


 17 16  0  0  0  0  0  0  0  0999 V2000     
   17.5830   16.7621   22.0570 C   0  0  0  0  0  0  0  0  0  0  0  0
   17.6682   15.5928   22.3782 O   0  5  0  0  0  0  0  0  0  0  0  0
   16.6042   17.2253   21.5022 O   0  0  0  0  0  0  0  0  0  0  0  0
   18.7388   17.6464   22.3677 C   0  0  0  0  0  0  0  0  0  0  0  0
   19.5811   17.1697   22.8639 H   0  0  0  0  0  0  0  0  0  0  0  0
   18.7816   18.9643   22.0673 C   0  0  0  0  0  0  0  0  0  0  0  0
   17.9443   19.4515   21.5680 H   0  0  0  0  0  0  0  0  0  0  0  0
   19.9619   19.8561   22.3848 C   0  0  0  0  0  0  0  0  0  0  0  0
   20.3851   19.5854   23.3618 H   0  0  0  0  0  0  0  0  0  0  0  0
   19.6238   20.8978   22.4685 H   0  0  0  0  0  0  0  0  0  0  0  0
   21.0523   19.7531   21.2988 C   0  0  0  0  0  0  0  0  0  0  0  0
   21.3947   18.7122   21.2166 H   0  0  0  0  0  0  0  0  0  0  0  0
   20.6272   20.0263   20.3229 H   0  0  0  0  0  0  0  0  0  0  0  0
   22.2549   20.6664   21.6103 C   0  0  0  0  0  0  0  0  0  0  0  0
   21.9454   21.7183   21.6664 H   0  0  0  0  0  0  0  0  0  0  0  0
   22.7178   20.3936   22.5677 H   0  0  0  0  0  0  0  0  0  0  0  0
   23.0195   20.5796   20.8273 H   0  0  0  0  0  0  0  0  0  0  0  0
  1  2  1  0  0  0  0
  1  3  2  0  0  0  0
  1  4  1  0  0  0  0
  4  5  1  0  0  0  0
  4  6  2  0  0  0  0
  6  7  1  0  0  0  0
  6  8  1  0  0  0  0
  8  9  1  0  0  0  0
  8 10  1  0  0  0  0
  8 11  1  0  0  0  0
 11 12  1  0  0  0  0
 11 13  1  0  0  0  0
 11 14  1  0  0  0  0
 14 15  1  0  0  0  0
 14 16  1  0  0  0  0
 14 17  1  0  0  0  0
M  END
> <VConfSearch Rank>
893

> <Conf_Id>
36

> <Delta U+W>
0.000

> <U+W>
-53.409

> <U>
9.048

> <W>
-62.457

> <W(PB)>
-64.540

> <W(SA)>
2.084

> <Valence>
2.652

> <Coulomb>
5.578

> <VdW>
0.818

> <VdW6>
-4.534

> <VdW12>
5.352

> <Bond>
0.063

> <Angle>
2.579

> <Pdih>
0.010

> <Idih>
0.000

> <Tether>
0.000

$$$$
VeraChem MOL file


 17 16  0  0  0  0  0  0  0  0999 V2000     
   22.1708   20.7234   23.9307 C   0  0  0  0  0  0  0  0  0  0  0  0
   21.5502   21.6325   24.4492 O   0  5  0  0  0  0  0  0  0  0  0  0
   23.3799   20.6227   24.0057 O   0  0  0  0  0  0  0  0  0  0  0  0
   21.4397   19.6762   23.1672 C   0  0  0  0  0  0  0  0  0  0  0  0
   22.0537   18.8924   22.7294 H   0  0  0  0  0  0  0  0  0  0  0  0
   20.0975   19.6630   23.0016 C   0  0  0  0  0  0  0  0  0  0  0  0
   19.4731   20.4445   23.4341 H   0  0  0  0  0  0  0  0  0  0  0  0
   19.3619   18.5951   22.2220 C   0  0  0  0  0  0  0  0  0  0  0  0
   18.3251   18.5282   22.5781 H   0  0  0  0  0  0  0  0  0  0  0  0
   19.8195   17.6134   22.4060 H   0  0  0  0  0  0  0  0  0  0  0  0
   19.3697   18.8977   20.7096 C   0  0  0  0  0  0  0  0  0  0  0  0
   18.9097   19.8790   20.5279 H   0  0  0  0  0  0  0  0  0  0  0  0
   20.4065   18.9608   20.3509 H   0  0  0  0  0  0  0  0  0  0  0  0
   18.6139   17.8185   19.9087 C   0  0  0  0  0  0  0  0  0  0  0  0
   17.5647   17.7563   20.2260 H   0  0  0  0  0  0  0  0  0  0  0  0
   18.6301   18.0507   18.8358 H   0  0  0  0  0  0  0  0  0  0  0  0
   19.0736   16.8313   20.0487 H   0  0  0  0  0  0  0  0  0  0  0  0
  1  2  1  0  0  0  0
  1  3  2  0  0  0  0
  1  4  1  0  0  0  0
  4  5  1  0  0  0  0
  4  6  2  0  0  0  0
  6  7  1  0  0  0  0
  6  8  1  0  0  0  0
  8  9  1  0  0  0  0
  8 10  1  0  0  0  0
  8 11  1  0  0  0  0
 11 12  1  0  0  0  0
 11 13  1  0  0  0  0
 11 14  1  0  0  0  0
 14 15  1  0  0  0  0
 14 16  1  0  0  0  0
 14 17  1  0  0  0  0
M  END
> <VConfSearch Rank>
894

> <Conf_Id>
1

> <Delta U+W>
0.030

> <U+W>
-53.378

> <U>
9.048

> <W>
-62.426

> <W(PB)>
-64.506

> <W(SA)>
2.080

> <Valence>
2.652

> <Coulomb>
5.578

> <VdW>
0.818

> <VdW6>
-4.535

> <VdW12>
5.352

> <Bond>
0.063

> <Angle>
2.579

> <Pdih>
0.010

> <Idih>
0.000

> <Tether>
0.000

$$$$
VeraChem MOL file


 17 16  0  0  0  0  0  0  0  0999 V2000     
   22.1369   19.3455   19.8282 C   0  0  0  0  0  0  0  0  0  0  0  0
   22.8957   20.1463   20.3413 O   0  5  0  0  0  0  0  0  0  0  0  0
   22.4422   18.6718   18.8635 O   0  0  0  0  0  0  0  0  0  0  0  0
   20.7687   19.1676   20.3855 C   0  0  0  0  0  0  0  0  0  0  0  0
   20.1414   18.4373   19.8797 H   0  0  0  0  0  0  0  0  0  0  0  0
   20.2960   19.8481   21.4543 C   0  0  0  0  0  0  0  0  0  0  0  0
   20.9171   20.5796   21.9706 H   0  0  0  0  0  0  0  0  0  0  0  0
   18.9035   19.6588   22.0184 C   0  0  0  0  0  0  0  0  0  0  0  0
   18.1835   19.5558   21.1952 H   0  0  0  0  0  0  0  0  0  0  0  0
   18.6028   20.5549   22.5778 H   0  0  0  0  0  0  0  0  0  0  0  0
   18.8043   18.4201   22.9355 C   0  0  0  0  0  0  0  0  0  0  0  0
   17.7556   18.2730   23.2284 H   0  0  0  0  0  0  0  0  0  0  0  0
   19.1034   17.5216   22.3782 H   0  0  0  0  0  0  0  0  0  0  0  0
   19.6690   18.5549   24.2071 C   0  0  0  0  0  0  0  0  0  0  0  0
   19.3788   19.4405   24.7873 H   0  0  0  0  0  0  0  0  0  0  0  0
   19.5489   17.6738   24.8506 H   0  0  0  0  0  0  0  0  0  0  0  0
   20.7337   18.6443   23.9544 H   0  0  0  0  0  0  0  0  0  0  0  0
  1  2  1  0  0  0  0
  1  3  2  0  0  0  0
  1  4  1  0  0  0  0
  4  5  1  0  0  0  0
  4  6  2  0  0  0  0
  6  7  1  0  0  0  0
  6  8  1  0  0  0  0
  8  9  1  0  0  0  0
  8 10  1  0  0  0  0
  8 11  1  0  0  0  0
 11 12  1  0  0  0  0
 11 13  1  0  0  0  0
 11 14  1  0  0  0  0
 14 15  1  0  0  0  0
 14 16  1  0  0  0  0
 14 17  1  0  0  0  0
M  END
> <VConfSearch Rank>
895

> <Conf_Id>
3

> <Delta U+W>
0.531

> <U+W>
-52.878

> <U>
10.067

> <W>
-62.945

> <W(PB)>
-64.982

> <W(SA)>
2.037

> <Valence>
2.779

> <Coulomb>
6.474

> <VdW>
0.815

> <VdW6>
-5.088

> <VdW12>
5.902

> <Bond>
0.078

> <Angle>
2.651

> <Pdih>
0.050

> <Idih>
0.000

> <Tether>
0.000

$$$$
VeraChem MOL file


 17 16  0  0  0  0  0  0  0  0999 V2000     
   21.1115   21.7873   22.8557 C   0  0  0  0  0  0  0  0  0  0  0  0
   20.6833   22.9029   22.6324 O   0  5  0  0  0  0  0  0  0  0  0  0
   22.2758   21.5704   23.1343 O   0  0  0  0  0  0  0  0  0  0  0  0
   20.1496   20.6544   22.7820 C   0  0  0  0  0  0  0  0  0  0  0  0
   19.1254   20.9180   22.5284 H   0  0  0  0  0  0  0  0  0  0  0  0
   20.4872   19.3636   23.0040 C   0  0  0  0  0  0  0  0  0  0  0  0
   21.5118   19.0902   23.2551 H   0  0  0  0  0  0  0  0  0  0  0  0
   19.5063   18.2121   22.9256 C   0  0  0  0  0  0  0  0  0  0  0  0
   18.4727   18.5809   22.9752 H   0  0  0  0  0  0  0  0  0  0  0  0
   19.6420   17.5653   23.8026 H   0  0  0  0  0  0  0  0  0  0  0  0
   19.6949   17.3674   21.6465 C   0  0  0  0  0  0  0  0  0  0  0  0
   20.7294   17.0003   21.5947 H   0  0  0  0  0  0  0  0  0  0  0  0
   19.0496   16.4801   21.7044 H   0  0  0  0  0  0  0  0  0  0  0  0
   19.3565   18.1524   20.3611 C   0  0  0  0  0  0  0  0  0  0  0  0
   20.0257   19.0133   20.2348 H   0  0  0  0  0  0  0  0  0  0  0  0
   19.4639   17.5105   19.4772 H   0  0  0  0  0  0  0  0  0  0  0  0
   18.3234   18.5227   20.3879 H   0  0  0  0  0  0  0  0  0  0  0  0
  1  2  1  0  0  0  0
  1  3  2  0  0  0  0
  1  4  1  0  0  0  0
  4  5  1  0  0  0  0
  4  6  2  0  0  0  0
  6  7  1  0  0  0  0
  6  8  1  0  0  0  0
  8  9  1  0  0  0  0
  8 10  1  0  0  0  0
  8 11  1  0  0  0  0
 11 12  1  0  0  0  0
 11 13  1  0  0  0  0
 11 14  1  0  0  0  0
 14 15  1  0  0  0  0
 14 16  1  0  0  0  0
 14 17  1  0  0  0  0
M  END
> <VConfSearch Rank>
896

> <Conf_Id>
45

> <Delta U+W>
0.562

> <U+W>
-52.846

> <U>
10.243

> <W>
-63.089

> <W(PB)>
-65.116

> <W(SA)>
2.026

> <Valence>
2.822

> <Coulomb>
6.637

> <VdW>
0.785

> <VdW6>
-5.216

> <VdW12>
6.001

> <Bond>
0.080

> <Angle>
2.678

> <Pdih>
0.064

> <Idih>
0.000

> <Tether>
0.000

$$$$
VeraChem MOL file


 17 16  0  0  0  0  0  0  0  0999 V2000     
   22.9829   20.6751   21.7965 C   0  0  0  0  0  0  0  0  0  0  0  0
   23.2516   21.8417   22.0078 O   0  5  0  0  0  0  0  0  0  0  0  0
   23.7626   19.9021   21.2721 O   0  0  0  0  0  0  0  0  0  0  0  0
   21.6360   20.1945   22.2074 C   0  0  0  0  0  0  0  0  0  0  0  0
   20.9883   20.9357   22.6701 H   0  0  0  0  0  0  0  0  0  0  0  0
   21.2030   18.9252   22.0327 C   0  0  0  0  0  0  0  0  0  0  0  0
   21.8427   18.1751   21.5681 H   0  0  0  0  0  0  0  0  0  0  0  0
   19.8306   18.4450   22.4515 C   0  0  0  0  0  0  0  0  0  0  0  0
   19.5453   18.9091   23.4054 H   0  0  0  0  0  0  0  0  0  0  0  0
   19.8580   17.3611   22.6272 H   0  0  0  0  0  0  0  0  0  0  0  0
   18.7709   18.7673   21.3782 C   0  0  0  0  0  0  0  0  0  0  0  0
   18.7393   19.8519   21.2042 H   0  0  0  0  0  0  0  0  0  0  0  0
   19.0574   18.3003   20.4256 H   0  0  0  0  0  0  0  0  0  0  0  0
   17.3707   18.2726   21.7933 C   0  0  0  0  0  0  0  0  0  0  0  0
   17.3666   17.1849   21.9430 H   0  0  0  0  0  0  0  0  0  0  0  0
   17.0471   18.7487   22.7282 H   0  0  0  0  0  0  0  0  0  0  0  0
   16.6308   18.5107   21.0181 H   0  0  0  0  0  0  0  0  0  0  0  0
  1  2  1  0  0  0  0
  1  3  2  0  0  0  0
  1  4  1  0  0  0  0
  4  5  1  0  0  0  0
  4  6  2  0  0  0  0
  6  7  1  0  0  0  0
  6  8  1  0  0  0  0
  8  9  1  0  0  0  0
  8 10  1  0  0  0  0
  8 11  1  0  0  0  0
 11 12  1  0  0  0  0
 11 13  1  0  0  0  0
 11 14  1  0  0  0  0
 14 15  1  0  0  0  0
 14 16  1  0  0  0  0
 14 17  1  0  0  0  0
M  END
> <VConfSearch Rank>
897

> <Conf_Id>
36

> <Delta U+W>
0.000

> <U+W>
-53.409

> <U>
9.048

> <W>
-62.457

> <W(PB)>
-64.540

> <W(SA)>
2.084

> <Valence>
2.652

> <Coulomb>
5.578

> <VdW>
0.818

> <VdW6>
-4.534

> <VdW12>
5.352

> <Bond>
0.063

> <Angle>
2.579

> <Pdih>
0.010

> <Idih>
0.000

> <Tether>
0.000

$$$$
VeraChem MOL file


 17 16  0  0  0  0  0  0  0  0999 V2000     
   17.5533   19.7653   24.1205 C   0  0  0  0  0  0  0  0  0  0  0  0
   16.5551   20.0138   23.4707 O   0  5  0  0  0  0  0  0  0  0  0  0
   17.6259   19.9581   25.3185 O   0  0  0  0  0  0  0  0  0  0  0  0
   18.7500   19.1986   23.4416 C   0  0  0  0  0  0  0  0  0  0  0  0
   19.6079   18.9995   24.0797 H   0  0  0  0  0  0  0  0  0  0  0  0
   18.8104   18.9346   22.1165 C   0  0  0  0  0  0  0  0  0  0  0  0
   17.9574   19.1322   21.4676 H   0  0  0  0  0  0  0  0  0  0  0  0
   20.0321   18.3599   21.4336 C   0  0  0  0  0  0  0  0  0  0  0  0
   19.7287   17.8347   20.5179 H   0  0  0  0  0  0  0  0  0  0  0  0
   20.5067   17.6102   22.0812 H   0  0  0  0  0  0  0  0  0  0  0  0
   21.0506   19.4636   21.0820 C   0  0  0  0  0  0  0  0  0  0  0  0
   20.5743   20.2111   20.4324 H   0  0  0  0  0  0  0  0  0  0  0  0
   21.3584   19.9875   21.9976 H   0  0  0  0  0  0  0  0  0  0  0  0
   22.2949   18.8871   20.3771 C   0  0  0  0  0  0  0  0  0  0  0  0
   22.0186   18.3844   19.4409 H   0  0  0  0  0  0  0  0  0  0  0  0
   23.0074   19.6864   20.1350 H   0  0  0  0  0  0  0  0  0  0  0  0
   22.8079   18.1588   21.0189 H   0  0  0  0  0  0  0  0  0  0  0  0
  1  2  1  0  0  0  0
  1  3  2  0  0  0  0
  1  4  1  0  0  0  0
  4  5  1  0  0  0  0
  4  6  2  0  0  0  0
  6  7  1  0  0  0  0
  6  8  1  0  0  0  0
  8  9  1  0  0  0  0
  8 10  1  0  0  0  0
  8 11  1  0  0  0  0
 11 12  1  0  0  0  0
 11 13  1  0  0  0  0
 11 14  1  0  0  0  0
 14 15  1  0  0  0  0
 14 16  1  0  0  0  0
 14 17  1  0  0  0  0
M  END
> <VConfSearch Rank>
898

> <Conf_Id>
1

> <Delta U+W>
0.030

> <U+W>
-53.378

> <U>
9.048

> <W>
-62.426

> <W(PB)>
-64.506

> <W(SA)>
2.080

> <Valence>
2.652

> <Coulomb>
5.578

> <VdW>
0.818

> <VdW6>
-4.535

> <VdW12>
5.352

> <Bond>
0.063

> <Angle>
2.579

> <Pdih>
0.010

> <Idih>
0.000

> <Tether>
0.000

$$$$
VeraChem MOL file


 17 16  0  0  0  0  0  0  0  0999 V2000     
   19.5284   18.6544   25.0626 C   0  0  0  0  0  0  0  0  0  0  0  0
   19.3782   19.8053   25.4280 O   0  5  0  0  0  0  0  0  0  0  0  0
   19.2063   17.6991   25.7420 O   0  0  0  0  0  0  0  0  0  0  0  0
   20.1338   18.3785   23.7317 C   0  0  0  0  0  0  0  0  0  0  0  0
   20.2404   17.3290   23.4671 H   0  0  0  0  0  0  0  0  0  0  0  0
   20.5366   19.3422   22.8726 C   0  0  0  0  0  0  0  0  0  0  0  0
   20.4313   20.3968   23.1262 H   0  0  0  0  0  0  0  0  0  0  0  0
   21.1485   19.0537   21.5178 C   0  0  0  0  0  0  0  0  0  0  0  0
   21.8406   18.2046   21.5995 H   0  0  0  0  0  0  0  0  0  0  0  0
   21.7527   19.9108   21.1914 H   0  0  0  0  0  0  0  0  0  0  0  0
   20.0818   18.7361   20.4469 C   0  0  0  0  0  0  0  0  0  0  0  0
   20.5844   18.4333   19.5180 H   0  0  0  0  0  0  0  0  0  0  0  0
   19.4764   17.8779   20.7702 H   0  0  0  0  0  0  0  0  0  0  0  0
   19.1617   19.9402   20.1532 C   0  0  0  0  0  0  0  0  0  0  0  0
   19.7449   20.8070   19.8159 H   0  0  0  0  0  0  0  0  0  0  0  0
   18.4391   19.6906   19.3655 H   0  0  0  0  0  0  0  0  0  0  0  0
   18.5965   20.2342   21.0473 H   0  0  0  0  0  0  0  0  0  0  0  0
  1  2  1  0  0  0  0
  1  3  2  0  0  0  0
  1  4  1  0  0  0  0
  4  5  1  0  0  0  0
  4  6  2  0  0  0  0
  6  7  1  0  0  0  0
  6  8  1  0  0  0  0
  8  9  1  0  0  0  0
  8 10  1  0  0  0  0
  8 11  1  0  0  0  0
 11 12  1  0  0  0  0
 11 13  1  0  0  0  0
 11 14  1  0  0  0  0
 14 15  1  0  0  0  0
 14 16  1  0  0  0  0
 14 17  1  0  0  0  0
M  END
> <VConfSearch Rank>
899

> <Conf_Id>
3

> <Delta U+W>
0.531

> <U+W>
-52.878

> <U>
10.067

> <W>
-62.945

> <W(PB)>
-64.982

> <W(SA)>
2.037

> <Valence>
2.779

> <Coulomb>
6.474

> <VdW>
0.815

> <VdW6>
-5.088

> <VdW12>
5.902

> <Bond>
0.078

> <Angle>
2.651

> <Pdih>
0.050

> <Idih>
0.000

> <Tether>
0.000

$$$$
VeraChem MOL file


 17 16  0  0  0  0  0  0  0  0999 V2000     
   22.2739   18.1484   20.3626 C   0  0  0  0  0  0  0  0  0  0  0  0
   23.4567   18.4203   20.4322 O   0  5  0  0  0  0  0  0  0  0  0  0
   21.7551   17.7118   19.3523 O   0  0  0  0  0  0  0  0  0  0  0  0
   21.4461   18.3645   21.5800 C   0  0  0  0  0  0  0  0  0  0  0  0
   21.9723   18.7564   22.4474 H   0  0  0  0  0  0  0  0  0  0  0  0
   20.1197   18.1079   21.6447 C   0  0  0  0  0  0  0  0  0  0  0  0
   19.5840   17.7186   20.7792 H   0  0  0  0  0  0  0  0  0  0  0  0
   19.2791   18.3316   22.8847 C   0  0  0  0  0  0  0  0  0  0  0  0
   19.9182   18.4237   23.7734 H   0  0  0  0  0  0  0  0  0  0  0  0
   18.6472   17.4493   23.0533 H   0  0  0  0  0  0  0  0  0  0  0  0
   18.3760   19.5786   22.7636 C   0  0  0  0  0  0  0  0  0  0  0  0
   17.7382   19.4885   21.8734 H   0  0  0  0  0  0  0  0  0  0  0  0
   17.7016   19.6183   23.6301 H   0  0  0  0  0  0  0  0  0  0  0  0
   19.1836   20.8923   22.6943 C   0  0  0  0  0  0  0  0  0  0  0  0
   19.8239   20.9171   21.8030 H   0  0  0  0  0  0  0  0  0  0  0  0
   18.5099   21.7576   22.6485 H   0  0  0  0  0  0  0  0  0  0  0  0
   19.8234   21.0069   23.5790 H   0  0  0  0  0  0  0  0  0  0  0  0
  1  2  1  0  0  0  0
  1  3  2  0  0  0  0
  1  4  1  0  0  0  0
  4  5  1  0  0  0  0
  4  6  2  0  0  0  0
  6  7  1  0  0  0  0
  6  8  1  0  0  0  0
  8  9  1  0  0  0  0
  8 10  1  0  0  0  0
  8 11  1  0  0  0  0
 11 12  1  0  0  0  0
 11 13  1  0  0  0  0
 11 14  1  0  0  0  0
 14 15  1  0  0  0  0
 14 16  1  0  0  0  0
 14 17  1  0  0  0  0
M  END
> <VConfSearch Rank>
900

> <Conf_Id>
45

> <Delta U+W>
0.562

> <U+W>
-52.846

> <U>
10.243

> <W>
-63.089

> <W(PB)>
-65.116

> <W(SA)>
2.026

> <Valence>
2.822

> <Coulomb>
6.637

> <VdW>
0.785

> <VdW6>
-5.216

> <VdW12>
6.001

> <Bond>
0.080

> <Angle>
2.678

> <Pdih>
0.064

> <Idih>
0.000

> <Tether>
0.000

$$$$
VeraChem MOL file


 17 16  0  0  0  0  0  0  0  0999 V2000     
   22.3328   20.5943   23.8431 C   0  0  0  0  0  0  0  0  0  0  0  0
   23.1400   21.4550   23.5508 O   0  5  0  0  0  0  0  0  0  0  0  0
   22.3980   19.9500   24.8732 O   0  0  0  0  0  0  0  0  0  0  0  0
   21.2248   20.3367   22.8840 C   0  0  0  0  0  0  0  0  0  0  0  0
   21.2250   20.9468   21.9836 H   0  0  0  0  0  0  0  0  0  0  0  0
   20.2591   19.4101   23.0791 C   0  0  0  0  0  0  0  0  0  0  0  0
   20.2507   18.7918   23.9765 H   0  0  0  0  0  0  0  0  0  0  0  0
   19.1368   19.1529   22.0975 C   0  0  0  0  0  0  0  0  0  0  0  0
   18.7934   20.1014   21.6626 H   0  0  0  0  0  0  0  0  0  0  0  0
   18.2763   18.7224   22.6273 H   0  0  0  0  0  0  0  0  0  0  0  0
   19.5823   18.1957   20.9731 C   0  0  0  0  0  0  0  0  0  0  0  0
   20.4406   18.6269   20.4393 H   0  0  0  0  0  0  0  0  0  0  0  0
   19.9233   17.2470   21.4104 H   0  0  0  0  0  0  0  0  0  0  0  0
   18.4410   17.9208   19.9733 C   0  0  0  0  0  0  0  0  0  0  0  0
   17.5808   17.4595   20.4760 H   0  0  0  0  0  0  0  0  0  0  0  0
   18.1023   18.8510   19.4984 H   0  0  0  0  0  0  0  0  0  0  0  0
   18.7765   17.2387   19.1814 H   0  0  0  0  0  0  0  0  0  0  0  0
  1  2  1  0  0  0  0
  1  3  2  0  0  0  0
  1  4  1  0  0  0  0
  4  5  1  0  0  0  0
  4  6  2  0  0  0  0
  6  7  1  0  0  0  0
  6  8  1  0  0  0  0
  8  9  1  0  0  0  0
  8 10  1  0  0  0  0
  8 11  1  0  0  0  0
 11 12  1  0  0  0  0
 11 13  1  0  0  0  0
 11 14  1  0  0  0  0
 14 15  1  0  0  0  0
 14 16  1  0  0  0  0
 14 17  1  0  0  0  0
M  END
> <VConfSearch Rank>
901

> <Conf_Id>
36

> <Delta U+W>
0.000

> <U+W>
-53.409

> <U>
9.048

> <W>
-62.457

> <W(PB)>
-64.540

> <W(SA)>
2.084

> <Valence>
2.652

> <Coulomb>
5.578

> <VdW>
0.818

> <VdW6>
-4.534

> <VdW12>
5.352

> <Bond>
0.063

> <Angle>
2.579

> <Pdih>
0.010

> <Idih>
0.000

> <Tether>
0.000

$$$$
VeraChem MOL file


 17 16  0  0  0  0  0  0  0  0999 V2000     
   16.7836   20.0599   21.8281 C   0  0  0  0  0  0  0  0  0  0  0  0
   16.5574   20.6273   22.8804 O   0  5  0  0  0  0  0  0  0  0  0  0
   15.9079   19.7485   21.0446 O   0  0  0  0  0  0  0  0  0  0  0  0
   18.1859   19.7233   21.4614 C   0  0  0  0  0  0  0  0  0  0  0  0
   18.3186   19.2170   20.5080 H   0  0  0  0  0  0  0  0  0  0  0  0
   19.2569   20.0085   22.2364 C   0  0  0  0  0  0  0  0  0  0  0  0
   19.1351   20.5135   23.1945 H   0  0  0  0  0  0  0  0  0  0  0  0
   20.6797   19.6610   21.8569 C   0  0  0  0  0  0  0  0  0  0  0  0
   21.3735   20.3418   22.3682 H   0  0  0  0  0  0  0  0  0  0  0  0
   20.8290   19.8140   20.7793 H   0  0  0  0  0  0  0  0  0  0  0  0
   21.0201   18.2030   22.2276 C   0  0  0  0  0  0  0  0  0  0  0  0
   20.8721   18.0530   23.3061 H   0  0  0  0  0  0  0  0  0  0  0  0
   20.3293   17.5202   21.7136 H   0  0  0  0  0  0  0  0  0  0  0  0
   22.4718   17.8437   21.8524 C   0  0  0  0  0  0  0  0  0  0  0  0
   23.1855   18.4917   22.3779 H   0  0  0  0  0  0  0  0  0  0  0  0
   22.6952   16.8036   22.1235 H   0  0  0  0  0  0  0  0  0  0  0  0
   22.6376   17.9555   20.7728 H   0  0  0  0  0  0  0  0  0  0  0  0
  1  2  1  0  0  0  0
  1  3  2  0  0  0  0
  1  4  1  0  0  0  0
  4  5  1  0  0  0  0
  4  6  2  0  0  0  0
  6  7  1  0  0  0  0
  6  8  1  0  0  0  0
  8  9  1  0  0  0  0
  8 10  1  0  0  0  0
  8 11  1  0  0  0  0
 11 12  1  0  0  0  0
 11 13  1  0  0  0  0
 11 14  1  0  0  0  0
 14 15  1  0  0  0  0
 14 16  1  0  0  0  0
 14 17  1  0  0  0  0
M  END
> <VConfSearch Rank>
902

> <Conf_Id>
1

> <Delta U+W>
0.030

> <U+W>
-53.378

> <U>
9.048

> <W>
-62.426

> <W(PB)>
-64.506

> <W(SA)>
2.080

> <Valence>
2.652

> <Coulomb>
5.578

> <VdW>
0.818

> <VdW6>
-4.535

> <VdW12>
5.352

> <Bond>
0.063

> <Angle>
2.579

> <Pdih>
0.010

> <Idih>
0.000

> <Tether>
0.000

$$$$
VeraChem MOL file


 17 16  0  0  0  0  0  0  0  0999 V2000     
   21.6251   18.4477   19.5002 C   0  0  0  0  0  0  0  0  0  0  0  0
   22.7602   18.5685   19.9212 O   0  5  0  0  0  0  0  0  0  0  0  0
   21.3664   17.8932   18.4498 O   0  0  0  0  0  0  0  0  0  0  0  0
   20.4871   18.9976   20.2856 C   0  0  0  0  0  0  0  0  0  0  0  0
   19.4995   18.8566   19.8527 H   0  0  0  0  0  0  0  0  0  0  0  0
   20.6273   19.6363   21.4694 C   0  0  0  0  0  0  0  0  0  0  0  0
   21.6119   19.7800   21.9139 H   0  0  0  0  0  0  0  0  0  0  0  0
   19.4639   20.1899   22.2650 C   0  0  0  0  0  0  0  0  0  0  0  0
   18.7409   20.6579   21.5833 H   0  0  0  0  0  0  0  0  0  0  0  0
   19.8152   20.9876   22.9333 H   0  0  0  0  0  0  0  0  0  0  0  0
   18.7471   19.1008   23.0931 C   0  0  0  0  0  0  0  0  0  0  0  0
   17.8543   19.5361   23.5627 H   0  0  0  0  0  0  0  0  0  0  0  0
   18.3934   18.3018   22.4269 H   0  0  0  0  0  0  0  0  0  0  0  0
   19.6521   18.5005   24.1901 C   0  0  0  0  0  0  0  0  0  0  0  0
   20.0077   19.2804   24.8761 H   0  0  0  0  0  0  0  0  0  0  0  0
   19.1018   17.7558   24.7796 H   0  0  0  0  0  0  0  0  0  0  0  0
   20.5277   18.0031   23.7529 H   0  0  0  0  0  0  0  0  0  0  0  0
  1  2  1  0  0  0  0
  1  3  2  0  0  0  0
  1  4  1  0  0  0  0
  4  5  1  0  0  0  0
  4  6  2  0  0  0  0
  6  7  1  0  0  0  0
  6  8  1  0  0  0  0
  8  9  1  0  0  0  0
  8 10  1  0  0  0  0
  8 11  1  0  0  0  0
 11 12  1  0  0  0  0
 11 13  1  0  0  0  0
 11 14  1  0  0  0  0
 14 15  1  0  0  0  0
 14 16  1  0  0  0  0
 14 17  1  0  0  0  0
M  END
> <VConfSearch Rank>
903

> <Conf_Id>
3

> <Delta U+W>
0.531

> <U+W>
-52.878

> <U>
10.067

> <W>
-62.945

> <W(PB)>
-64.982

> <W(SA)>
2.037

> <Valence>
2.779

> <Coulomb>
6.474

> <VdW>
0.815

> <VdW6>
-5.088

> <VdW12>
5.902

> <Bond>
0.078

> <Angle>
2.651

> <Pdih>
0.050

> <Idih>
0.000

> <Tether>
0.000

$$$$
VeraChem MOL file


 17 16  0  0  0  0  0  0  0  0999 V2000     
   21.6385   18.1136   19.7559 C   0  0  0  0  0  0  0  0  0  0  0  0
   22.0942   18.7300   18.8124 O   0  5  0  0  0  0  0  0  0  0  0  0
   21.4765   16.9078   19.7406 O   0  0  0  0  0  0  0  0  0  0  0  0
   21.2736   18.8893   20.9721 C   0  0  0  0  0  0  0  0  0  0  0  0
   21.4439   19.9621   20.9187 H   0  0  0  0  0  0  0  0  0  0  0  0
   20.7553   18.3352   22.0919 C   0  0  0  0  0  0  0  0  0  0  0  0
   20.5781   17.2617   22.1525 H   0  0  0  0  0  0  0  0  0  0  0  0
   20.3822   19.1280   23.3275 C   0  0  0  0  0  0  0  0  0  0  0  0
   20.8603   20.1169   23.3112 H   0  0  0  0  0  0  0  0  0  0  0  0
   20.7746   18.6139   24.2151 H   0  0  0  0  0  0  0  0  0  0  0  0
   18.8541   19.2928   23.4789 C   0  0  0  0  0  0  0  0  0  0  0  0
   18.3749   18.3041   23.4927 H   0  0  0  0  0  0  0  0  0  0  0  0
   18.6384   19.7597   24.4498 H   0  0  0  0  0  0  0  0  0  0  0  0
   18.2358   20.1552   22.3578 C   0  0  0  0  0  0  0  0  0  0  0  0
   18.3755   19.6866   21.3749 H   0  0  0  0  0  0  0  0  0  0  0  0
   17.1577   20.2830   22.5192 H   0  0  0  0  0  0  0  0  0  0  0  0
   18.6953   21.1518   22.3305 H   0  0  0  0  0  0  0  0  0  0  0  0
  1  2  1  0  0  0  0
  1  3  2  0  0  0  0
  1  4  1  0  0  0  0
  4  5  1  0  0  0  0
  4  6  2  0  0  0  0
  6  7  1  0  0  0  0
  6  8  1  0  0  0  0
  8  9  1  0  0  0  0
  8 10  1  0  0  0  0
  8 11  1  0  0  0  0
 11 12  1  0  0  0  0
 11 13  1  0  0  0  0
 11 14  1  0  0  0  0
 14 15  1  0  0  0  0
 14 16  1  0  0  0  0
 14 17  1  0  0  0  0
M  END
> <VConfSearch Rank>
904

> <Conf_Id>
45

> <Delta U+W>
0.562

> <U+W>
-52.846

> <U>
10.243

> <W>
-63.089

> <W(PB)>
-65.116

> <W(SA)>
2.026

> <Valence>
2.822

> <Coulomb>
6.637

> <VdW>
0.785

> <VdW6>
-5.216

> <VdW12>
6.001

> <Bond>
0.080

> <Angle>
2.678

> <Pdih>
0.064

> <Idih>
0.000

> <Tether>
0.000

$$$$
VeraChem MOL file


 17 16  0  0  0  0  0  0  0  0999 V2000     
   21.2061   19.7765   18.8357 C   0  0  0  0  0  0  0  0  0  0  0  0
   21.9345   19.1012   18.1350 O   0  5  0  0  0  0  0  0  0  0  0  0
   20.9700   20.9480   18.6073 O   0  0  0  0  0  0  0  0  0  0  0  0
   20.5867   19.1190   20.0182 C   0  0  0  0  0  0  0  0  0  0  0  0
   20.8388   18.0713   20.1649 H   0  0  0  0  0  0  0  0  0  0  0  0
   19.7587   19.7482   20.8828 C   0  0  0  0  0  0  0  0  0  0  0  0
   19.5012   20.7985   20.7465 H   0  0  0  0  0  0  0  0  0  0  0  0
   19.1345   19.0728   22.0842 C   0  0  0  0  0  0  0  0  0  0  0  0
   18.8498   18.0426   21.8301 H   0  0  0  0  0  0  0  0  0  0  0  0
   18.2078   19.5943   22.3592 H   0  0  0  0  0  0  0  0  0  0  0  0
   20.0988   19.0644   23.2881 C   0  0  0  0  0  0  0  0  0  0  0  0
   21.0249   18.5393   23.0159 H   0  0  0  0  0  0  0  0  0  0  0  0
   20.3805   20.0959   23.5416 H   0  0  0  0  0  0  0  0  0  0  0  0
   19.4665   18.3859   24.5199 C   0  0  0  0  0  0  0  0  0  0  0  0
   18.5545   18.9111   24.8330 H   0  0  0  0  0  0  0  0  0  0  0  0
   19.2037   17.3424   24.3019 H   0  0  0  0  0  0  0  0  0  0  0  0
   20.1667   18.3895   25.3654 H   0  0  0  0  0  0  0  0  0  0  0  0
  1  2  1  0  0  0  0
  1  3  2  0  0  0  0
  1  4  1  0  0  0  0
  4  5  1  0  0  0  0
  4  6  2  0  0  0  0
  6  7  1  0  0  0  0
  6  8  1  0  0  0  0
  8  9  1  0  0  0  0
  8 10  1  0  0  0  0
  8 11  1  0  0  0  0
 11 12  1  0  0  0  0
 11 13  1  0  0  0  0
 11 14  1  0  0  0  0
 14 15  1  0  0  0  0
 14 16  1  0  0  0  0
 14 17  1  0  0  0  0
M  END
> <VConfSearch Rank>
905

> <Conf_Id>
36

> <Delta U+W>
0.000

> <U+W>
-53.409

> <U>
9.048

> <W>
-62.457

> <W(PB)>
-64.540

> <W(SA)>
2.084

> <Valence>
2.652

> <Coulomb>
5.578

> <VdW>
0.818

> <VdW6>
-4.534

> <VdW12>
5.352

> <Bond>
0.063

> <Angle>
2.579

> <Pdih>
0.010

> <Idih>
0.000

> <Tether>
0.000

$$$$
VeraChem MOL file


 17 16  0  0  0  0  0  0  0  0999 V2000     
   18.1698   18.2441   24.6071 C   0  0  0  0  0  0  0  0  0  0  0  0
   18.9157   18.2711   25.5680 O   0  5  0  0  0  0  0  0  0  0  0  0
   17.0477   17.7789   24.6555 O   0  0  0  0  0  0  0  0  0  0  0  0
   18.6279   18.8001   23.3052 C   0  0  0  0  0  0  0  0  0  0  0  0
   17.9129   18.7448   22.4875 H   0  0  0  0  0  0  0  0  0  0  0  0
   19.8490   19.3467   23.1068 C   0  0  0  0  0  0  0  0  0  0  0  0
   20.5739   19.4051   23.9185 H   0  0  0  0  0  0  0  0  0  0  0  0
   20.3078   19.9082   21.7789 C   0  0  0  0  0  0  0  0  0  0  0  0
   21.0913   20.6591   21.9481 H   0  0  0  0  0  0  0  0  0  0  0  0
   19.4769   20.4296   21.2844 H   0  0  0  0  0  0  0  0  0  0  0  0
   20.8484   18.7973   20.8556 C   0  0  0  0  0  0  0  0  0  0  0  0
   21.6808   18.2787   21.3515 H   0  0  0  0  0  0  0  0  0  0  0  0
   20.0644   18.0472   20.6820 H   0  0  0  0  0  0  0  0  0  0  0  0
   21.3268   19.3629   19.5033 C   0  0  0  0  0  0  0  0  0  0  0  0
   22.1340   20.0933   19.6462 H   0  0  0  0  0  0  0  0  0  0  0  0
   21.7076   18.5585   18.8606 H   0  0  0  0  0  0  0  0  0  0  0  0
   20.5044   19.8601   18.9724 H   0  0  0  0  0  0  0  0  0  0  0  0
  1  2  1  0  0  0  0
  1  3  2  0  0  0  0
  1  4  1  0  0  0  0
  4  5  1  0  0  0  0
  4  6  2  0  0  0  0
  6  7  1  0  0  0  0
  6  8  1  0  0  0  0
  8  9  1  0  0  0  0
  8 10  1  0  0  0  0
  8 11  1  0  0  0  0
 11 12  1  0  0  0  0
 11 13  1  0  0  0  0
 11 14  1  0  0  0  0
 14 15  1  0  0  0  0
 14 16  1  0  0  0  0
 14 17  1  0  0  0  0
M  END
> <VConfSearch Rank>
906

> <Conf_Id>
1

> <Delta U+W>
0.030

> <U+W>
-53.378

> <U>
9.048

> <W>
-62.426

> <W(PB)>
-64.506

> <W(SA)>
2.080

> <Valence>
2.652

> <Coulomb>
5.578

> <VdW>
0.818

> <VdW6>
-4.535

> <VdW12>
5.352

> <Bond>
0.063

> <Angle>
2.579

> <Pdih>
0.010

> <Idih>
0.000

> <Tether>
0.000

$$$$
VeraChem MOL file


 17 16  0  0  0  0  0  0  0  0999 V2000     
   21.6924   17.2772   23.8979 C   0  0  0  0  0  0  0  0  0  0  0  0
   22.4358   18.1013   24.3965 O   0  5  0  0  0  0  0  0  0  0  0  0
   21.5443   16.1603   24.3544 O   0  0  0  0  0  0  0  0  0  0  0  0
   20.9227   17.6268   22.6734 C   0  0  0  0  0  0  0  0  0  0  0  0
   20.2779   16.8450   22.2786 H   0  0  0  0  0  0  0  0  0  0  0  0
   20.9886   18.8302   22.0597 C   0  0  0  0  0  0  0  0  0  0  0  0
   21.6287   19.6217   22.4487 H   0  0  0  0  0  0  0  0  0  0  0  0
   20.1991   19.1801   20.8158 C   0  0  0  0  0  0  0  0  0  0  0  0
   20.1959   18.3233   20.1285 H   0  0  0  0  0  0  0  0  0  0  0  0
   20.6934   20.0012   20.2792 H   0  0  0  0  0  0  0  0  0  0  0  0
   18.7414   19.5768   21.1371 C   0  0  0  0  0  0  0  0  0  0  0  0
   18.1914   19.7161   20.1962 H   0  0  0  0  0  0  0  0  0  0  0  0
   18.2439   18.7566   21.6730 H   0  0  0  0  0  0  0  0  0  0  0  0
   18.6512   20.8728   21.9708 C   0  0  0  0  0  0  0  0  0  0  0  0
   19.1317   21.7101   21.4482 H   0  0  0  0  0  0  0  0  0  0  0  0
   17.6028   21.1430   22.1518 H   0  0  0  0  0  0  0  0  0  0  0  0
   19.1404   20.7512   22.9461 H   0  0  0  0  0  0  0  0  0  0  0  0
  1  2  1  0  0  0  0
  1  3  2  0  0  0  0
  1  4  1  0  0  0  0
  4  5  1  0  0  0  0
  4  6  2  0  0  0  0
  6  7  1  0  0  0  0
  6  8  1  0  0  0  0
  8  9  1  0  0  0  0
  8 10  1  0  0  0  0
  8 11  1  0  0  0  0
 11 12  1  0  0  0  0
 11 13  1  0  0  0  0
 11 14  1  0  0  0  0
 14 15  1  0  0  0  0
 14 16  1  0  0  0  0
 14 17  1  0  0  0  0
M  END
> <VConfSearch Rank>
907

> <Conf_Id>
3

> <Delta U+W>
0.531

> <U+W>
-52.878

> <U>
10.067

> <W>
-62.945

> <W(PB)>
-64.982

> <W(SA)>
2.037

> <Valence>
2.779

> <Coulomb>
6.474

> <VdW>
0.815

> <VdW6>
-5.088

> <VdW12>
5.902

> <Bond>
0.078

> <Angle>
2.651

> <Pdih>
0.050

> <Idih>
0.000

> <Tether>
0.000

$$$$
VeraChem MOL file


 17 16  0  0  0  0  0  0  0  0999 V2000     
   18.1157   20.9522   23.5669 C   0  0  0  0  0  0  0  0  0  0  0  0
   18.3562   22.0007   24.1332 O   0  5  0  0  0  0  0  0  0  0  0  0
   17.1293   20.2821   23.8089 O   0  0  0  0  0  0  0  0  0  0  0  0
   19.0830   20.4909   22.5347 C   0  0  0  0  0  0  0  0  0  0  0  0
   19.9420   21.1367   22.3680 H   0  0  0  0  0  0  0  0  0  0  0  0
   18.9432   19.3452   21.8294 C   0  0  0  0  0  0  0  0  0  0  0  0
   18.0875   18.6906   21.9928 H   0  0  0  0  0  0  0  0  0  0  0  0
   19.9311   18.8769   20.7811 C   0  0  0  0  0  0  0  0  0  0  0  0
   20.5763   19.7061   20.4603 H   0  0  0  0  0  0  0  0  0  0  0  0
   19.3798   18.5557   19.8873 H   0  0  0  0  0  0  0  0  0  0  0  0
   20.8032   17.7040   21.2800 C   0  0  0  0  0  0  0  0  0  0  0  0
   20.1586   16.8750   21.6036 H   0  0  0  0  0  0  0  0  0  0  0  0
   21.4062   17.3245   20.4436 H   0  0  0  0  0  0  0  0  0  0  0  0
   21.7442   18.1123   22.4336 C   0  0  0  0  0  0  0  0  0  0  0  0
   21.1741   18.4374   23.3136 H   0  0  0  0  0  0  0  0  0  0  0  0
   22.3748   17.2660   22.7353 H   0  0  0  0  0  0  0  0  0  0  0  0
   22.4038   18.9354   22.1295 H   0  0  0  0  0  0  0  0  0  0  0  0
  1  2  1  0  0  0  0
  1  3  2  0  0  0  0
  1  4  1  0  0  0  0
  4  5  1  0  0  0  0
  4  6  2  0  0  0  0
  6  7  1  0  0  0  0
  6  8  1  0  0  0  0
  8  9  1  0  0  0  0
  8 10  1  0  0  0  0
  8 11  1  0  0  0  0
 11 12  1  0  0  0  0
 11 13  1  0  0  0  0
 11 14  1  0  0  0  0
 14 15  1  0  0  0  0
 14 16  1  0  0  0  0
 14 17  1  0  0  0  0
M  END
> <VConfSearch Rank>
908

> <Conf_Id>
45

> <Delta U+W>
0.562

> <U+W>
-52.846

> <U>
10.243

> <W>
-63.089

> <W(PB)>
-65.116

> <W(SA)>
2.026

> <Valence>
2.822

> <Coulomb>
6.637

> <VdW>
0.785

> <VdW6>
-5.216

> <VdW12>
6.001

> <Bond>
0.080

> <Angle>
2.678

> <Pdih>
0.064

> <Idih>
0.000

> <Tether>
0.000

$$$$
VeraChem MOL file


 17 16  0  0  0  0  0  0  0  0999 V2000     
   23.2131   18.8052   22.8687 C   0  0  0  0  0  0  0  0  0  0  0  0
   24.0255   17.9524   22.5681 O   0  5  0  0  0  0  0  0  0  0  0  0
   23.3888   19.5934   23.7788 O   0  0  0  0  0  0  0  0  0  0  0  0
   21.9572   18.8691   22.0733 C   0  0  0  0  0  0  0  0  0  0  0  0
   21.8633   18.1366   21.2748 H   0  0  0  0  0  0  0  0  0  0  0  0
   20.9680   19.7639   22.2969 C   0  0  0  0  0  0  0  0  0  0  0  0
   21.0507   20.5007   23.0957 H   0  0  0  0  0  0  0  0  0  0  0  0
   19.6928   19.8207   21.4847 C   0  0  0  0  0  0  0  0  0  0  0  0
   19.9120   19.6211   20.4269 H   0  0  0  0  0  0  0  0  0  0  0  0
   19.2723   20.8344   21.5306 H   0  0  0  0  0  0  0  0  0  0  0  0
   18.6520   18.8063   22.0010 C   0  0  0  0  0  0  0  0  0  0  0  0
   19.0697   17.7911   21.9518 H   0  0  0  0  0  0  0  0  0  0  0  0
   18.4328   19.0093   23.0585 H   0  0  0  0  0  0  0  0  0  0  0  0
   17.3455   18.8645   21.1842 C   0  0  0  0  0  0  0  0  0  0  0  0
   16.8896   19.8616   21.2426 H   0  0  0  0  0  0  0  0  0  0  0  0
   17.5326   18.6343   20.1271 H   0  0  0  0  0  0  0  0  0  0  0  0
   16.6180   18.1364   21.5658 H   0  0  0  0  0  0  0  0  0  0  0  0
  1  2  1  0  0  0  0
  1  3  2  0  0  0  0
  1  4  1  0  0  0  0
  4  5  1  0  0  0  0
  4  6  2  0  0  0  0
  6  7  1  0  0  0  0
  6  8  1  0  0  0  0
  8  9  1  0  0  0  0
  8 10  1  0  0  0  0
  8 11  1  0  0  0  0
 11 12  1  0  0  0  0
 11 13  1  0  0  0  0
 11 14  1  0  0  0  0
 14 15  1  0  0  0  0
 14 16  1  0  0  0  0
 14 17  1  0  0  0  0
M  END
> <VConfSearch Rank>
909

> <Conf_Id>
36

> <Delta U+W>
0.000

> <U+W>
-53.409

> <U>
9.048

> <W>
-62.457

> <W(PB)>
-64.540

> <W(SA)>
2.084

> <Valence>
2.652

> <Coulomb>
5.578

> <VdW>
0.818

> <VdW6>
-4.534

> <VdW12>
5.352

> <Bond>
0.063

> <Angle>
2.579

> <Pdih>
0.010

> <Idih>
0.000

> <Tether>
0.000

$$$$
VeraChem MOL file


 17 16  0  0  0  0  0  0  0  0999 V2000     
   21.4099   16.5804   20.1488 C   0  0  0  0  0  0  0  0  0  0  0  0
   21.1718   15.5510   20.7523 O   0  5  0  0  0  0  0  0  0  0  0  0
   22.1909   16.6347   19.2189 O   0  0  0  0  0  0  0  0  0  0  0  0
   20.7264   17.8407   20.5471 C   0  0  0  0  0  0  0  0  0  0  0  0
   20.9839   18.7240   19.9671 H   0  0  0  0  0  0  0  0  0  0  0  0
   19.8363   17.9272   21.5616 C   0  0  0  0  0  0  0  0  0  0  0  0
   19.5727   17.0489   22.1506 H   0  0  0  0  0  0  0  0  0  0  0  0
   19.1470   19.2134   21.9615 C   0  0  0  0  0  0  0  0  0  0  0  0
   18.1976   18.9814   22.4628 H   0  0  0  0  0  0  0  0  0  0  0  0
   18.8931   19.7974   21.0664 H   0  0  0  0  0  0  0  0  0  0  0  0
   20.0333   20.0577   22.8998 C   0  0  0  0  0  0  0  0  0  0  0  0
   20.2841   19.4723   23.7953 H   0  0  0  0  0  0  0  0  0  0  0  0
   20.9820   20.2942   22.3982 H   0  0  0  0  0  0  0  0  0  0  0  0
   19.3340   21.3663   23.3195 C   0  0  0  0  0  0  0  0  0  0  0  0
   18.3969   21.1578   23.8521 H   0  0  0  0  0  0  0  0  0  0  0  0
   19.9793   21.9530   23.9862 H   0  0  0  0  0  0  0  0  0  0  0  0
   19.1002   21.9852   22.4433 H   0  0  0  0  0  0  0  0  0  0  0  0
  1  2  1  0  0  0  0
  1  3  2  0  0  0  0
  1  4  1  0  0  0  0
  4  5  1  0  0  0  0
  4  6  2  0  0  0  0
  6  7  1  0  0  0  0
  6  8  1  0  0  0  0
  8  9  1  0  0  0  0
  8 10  1  0  0  0  0
  8 11  1  0  0  0  0
 11 12  1  0  0  0  0
 11 13  1  0  0  0  0
 11 14  1  0  0  0  0
 14 15  1  0  0  0  0
 14 16  1  0  0  0  0
 14 17  1  0  0  0  0
M  END
> <VConfSearch Rank>
910

> <Conf_Id>
1

> <Delta U+W>
0.030

> <U+W>
-53.378

> <U>
9.048

> <W>
-62.426

> <W(PB)>
-64.506

> <W(SA)>
2.080

> <Valence>
2.652

> <Coulomb>
5.578

> <VdW>
0.818

> <VdW6>
-4.535

> <VdW12>
5.352

> <Bond>
0.063

> <Angle>
2.579

> <Pdih>
0.010

> <Idih>
0.000

> <Tether>
0.000

$$$$
VeraChem MOL file


 17 16  0  0  0  0  0  0  0  0999 V2000     
   19.9033   20.5342   24.7698 C   0  0  0  0  0  0  0  0  0  0  0  0
   21.0632   20.4291   25.1222 O   0  5  0  0  0  0  0  0  0  0  0  0
   19.1246   21.3117   25.2864 O   0  0  0  0  0  0  0  0  0  0  0  0
   19.3911   19.6822   23.6626 C   0  0  0  0  0  0  0  0  0  0  0  0
   18.3460   19.8254   23.3980 H   0  0  0  0  0  0  0  0  0  0  0  0
   20.1444   18.7767   22.9980 C   0  0  0  0  0  0  0  0  0  0  0  0
   21.1935   18.6276   23.2528 H   0  0  0  0  0  0  0  0  0  0  0  0
   19.6171   17.9158   21.8694 C   0  0  0  0  0  0  0  0  0  0  0  0
   18.6048   17.5670   22.1143 H   0  0  0  0  0  0  0  0  0  0  0  0
   20.2356   17.0139   21.7682 H   0  0  0  0  0  0  0  0  0  0  0  0
   19.5804   18.6706   20.5224 C   0  0  0  0  0  0  0  0  0  0  0  0
   19.0939   18.0364   19.7685 H   0  0  0  0  0  0  0  0  0  0  0  0
   18.9612   19.5730   20.6202 H   0  0  0  0  0  0  0  0  0  0  0  0
   20.9887   19.0580   20.0229 C   0  0  0  0  0  0  0  0  0  0  0  0
   21.6221   18.1691   19.9056 H   0  0  0  0  0  0  0  0  0  0  0  0
   20.9278   19.5617   19.0495 H   0  0  0  0  0  0  0  0  0  0  0  0
   21.4838   19.7415   20.7250 H   0  0  0  0  0  0  0  0  0  0  0  0
  1  2  1  0  0  0  0
  1  3  2  0  0  0  0
  1  4  1  0  0  0  0
  4  5  1  0  0  0  0
  4  6  2  0  0  0  0
  6  7  1  0  0  0  0
  6  8  1  0  0  0  0
  8  9  1  0  0  0  0
  8 10  1  0  0  0  0
  8 11  1  0  0  0  0
 11 12  1  0  0  0  0
 11 13  1  0  0  0  0
 11 14  1  0  0  0  0
 14 15  1  0  0  0  0
 14 16  1  0  0  0  0
 14 17  1  0  0  0  0
M  END
> <VConfSearch Rank>
911

> <Conf_Id>
3

> <Delta U+W>
0.531

> <U+W>
-52.878

> <U>
10.067

> <W>
-62.945

> <W(PB)>
-64.982

> <W(SA)>
2.037

> <Valence>
2.779

> <Coulomb>
6.474

> <VdW>
0.815

> <VdW6>
-5.088

> <VdW12>
5.902

> <Bond>
0.078

> <Angle>
2.651

> <Pdih>
0.050

> <Idih>
0.000

> <Tether>
0.000

$$$$
VeraChem MOL file


 17 16  0  0  0  0  0  0  0  0999 V2000     
   19.8962   21.4823   23.9296 C   0  0  0  0  0  0  0  0  0  0  0  0
   18.9812   21.9038   24.6100 O   0  5  0  0  0  0  0  0  0  0  0  0
   20.8481   22.1675   23.6056 O   0  0  0  0  0  0  0  0  0  0  0  0
   19.8280   20.0627   23.4891 C   0  0  0  0  0  0  0  0  0  0  0  0
   18.9510   19.5075   23.8136 H   0  0  0  0  0  0  0  0  0  0  0  0
   20.7724   19.4635   22.7285 C   0  0  0  0  0  0  0  0  0  0  0  0
   21.6524   20.0135   22.3960 H   0  0  0  0  0  0  0  0  0  0  0  0
   20.6988   18.0188   22.2793 C   0  0  0  0  0  0  0  0  0  0  0  0
   19.9729   17.4617   22.8871 H   0  0  0  0  0  0  0  0  0  0  0  0
   21.6720   17.5400   22.4511 H   0  0  0  0  0  0  0  0  0  0  0  0
   20.3330   17.8877   20.7845 C   0  0  0  0  0  0  0  0  0  0  0  0
   21.0572   18.4469   20.1760 H   0  0  0  0  0  0  0  0  0  0  0  0
   20.4194   16.8340   20.4855 H   0  0  0  0  0  0  0  0  0  0  0  0
   18.9034   18.3821   20.4773 C   0  0  0  0  0  0  0  0  0  0  0  0
   18.7966   19.4510   20.7036 H   0  0  0  0  0  0  0  0  0  0  0  0
   18.6648   18.2377   19.4156 H   0  0  0  0  0  0  0  0  0  0  0  0
   18.1616   17.8309   21.0697 H   0  0  0  0  0  0  0  0  0  0  0  0
  1  2  1  0  0  0  0
  1  3  2  0  0  0  0
  1  4  1  0  0  0  0
  4  5  1  0  0  0  0
  4  6  2  0  0  0  0
  6  7  1  0  0  0  0
  6  8  1  0  0  0  0
  8  9  1  0  0  0  0
  8 10  1  0  0  0  0
  8 11  1  0  0  0  0
 11 12  1  0  0  0  0
 11 13  1  0  0  0  0
 11 14  1  0  0  0  0
 14 15  1  0  0  0  0
 14 16  1  0  0  0  0
 14 17  1  0  0  0  0
M  END
> <VConfSearch Rank>
912

> <Conf_Id>
45

> <Delta U+W>
0.562

> <U+W>
-52.846

> <U>
10.243

> <W>
-63.089

> <W(PB)>
-65.116

> <W(SA)>
2.026

> <Valence>
2.822

> <Coulomb>
6.637

> <VdW>
0.785

> <VdW6>
-5.216

> <VdW12>
6.001

> <Bond>
0.080

> <Angle>
2.678

> <Pdih>
0.064

> <Idih>
0.000

> <Tether>
0.000

$$$$
VeraChem MOL file


 17 16  0  0  0  0  0  0  0  0999 V2000     
   18.1749   18.3474   19.1788 C   0  0  0  0  0  0  0  0  0  0  0  0
   17.1197   17.7491   19.0999 O   0  5  0  0  0  0  0  0  0  0  0  0
   18.8765   18.5796   18.2123 O   0  0  0  0  0  0  0  0  0  0  0  0
   18.6055   18.8070   20.5270 C   0  0  0  0  0  0  0  0  0  0  0  0
   17.9330   18.5671   21.3474 H   0  0  0  0  0  0  0  0  0  0  0  0
   19.7541   19.4812   20.7621 C   0  0  0  0  0  0  0  0  0  0  0  0
   20.4363   19.7247   19.9478 H   0  0  0  0  0  0  0  0  0  0  0  0
   20.1857   19.9432   22.1367 C   0  0  0  0  0  0  0  0  0  0  0  0
   19.3138   20.2922   22.7066 H   0  0  0  0  0  0  0  0  0  0  0  0
   20.8608   20.8042   22.0402 H   0  0  0  0  0  0  0  0  0  0  0  0
   20.8962   18.8145   22.9115 C   0  0  0  0  0  0  0  0  0  0  0  0
   20.2206   17.9538   23.0126 H   0  0  0  0  0  0  0  0  0  0  0  0
   21.7691   18.4686   22.3404 H   0  0  0  0  0  0  0  0  0  0  0  0
   21.3478   19.2803   24.3103 C   0  0  0  0  0  0  0  0  0  0  0  0
   22.0501   20.1210   24.2368 H   0  0  0  0  0  0  0  0  0  0  0  0
   20.4888   19.6026   24.9133 H   0  0  0  0  0  0  0  0  0  0  0  0
   21.8507   18.4645   24.8459 H   0  0  0  0  0  0  0  0  0  0  0  0
  1  2  1  0  0  0  0
  1  3  2  0  0  0  0
  1  4  1  0  0  0  0
  4  5  1  0  0  0  0
  4  6  2  0  0  0  0
  6  7  1  0  0  0  0
  6  8  1  0  0  0  0
  8  9  1  0  0  0  0
  8 10  1  0  0  0  0
  8 11  1  0  0  0  0
 11 12  1  0  0  0  0
 11 13  1  0  0  0  0
 11 14  1  0  0  0  0
 14 15  1  0  0  0  0
 14 16  1  0  0  0  0
 14 17  1  0  0  0  0
M  END
> <VConfSearch Rank>
913

> <Conf_Id>
36

> <Delta U+W>
0.000

> <U+W>
-53.409

> <U>
9.048

> <W>
-62.457

> <W(PB)>
-64.540

> <W(SA)>
2.084

> <Valence>
2.652

> <Coulomb>
5.578

> <VdW>
0.818

> <VdW6>
-4.534

> <VdW12>
5.352

> <Bond>
0.063

> <Angle>
2.579

> <Pdih>
0.010

> <Idih>
0.000

> <Tether>
0.000

$$$$
VeraChem MOL file


 17 16  0  0  0  0  0  0  0  0999 V2000     
   19.3949   15.7776   21.9242 C   0  0  0  0  0  0  0  0  0  0  0  0
   18.4647   15.5901   21.1626 O   0  5  0  0  0  0  0  0  0  0  0  0
   19.8192   14.9181   22.6720 O   0  0  0  0  0  0  0  0  0  0  0  0
   20.0595   17.1084   21.9591 C   0  0  0  0  0  0  0  0  0  0  0  0
   20.8837   17.2091   22.6616 H   0  0  0  0  0  0  0  0  0  0  0  0
   19.6922   18.1548   21.1850 C   0  0  0  0  0  0  0  0  0  0  0  0
   18.8665   18.0656   20.4793 H   0  0  0  0  0  0  0  0  0  0  0  0
   20.3723   19.5057   21.2279 C   0  0  0  0  0  0  0  0  0  0  0  0
   20.2298   20.0200   20.2679 H   0  0  0  0  0  0  0  0  0  0  0  0
   21.4558   19.3769   21.3556 H   0  0  0  0  0  0  0  0  0  0  0  0
   19.8140   20.3799   22.3695 C   0  0  0  0  0  0  0  0  0  0  0  0
   18.7306   20.5091   22.2385 H   0  0  0  0  0  0  0  0  0  0  0  0
   19.9595   19.8686   23.3313 H   0  0  0  0  0  0  0  0  0  0  0  0
   20.4957   21.7622   22.4143 C   0  0  0  0  0  0  0  0  0  0  0  0
   20.3385   22.3085   21.4750 H   0  0  0  0  0  0  0  0  0  0  0  0
   20.0858   22.3692   23.2320 H   0  0  0  0  0  0  0  0  0  0  0  0
   21.5770   21.6619   22.5759 H   0  0  0  0  0  0  0  0  0  0  0  0
  1  2  1  0  0  0  0
  1  3  2  0  0  0  0
  1  4  1  0  0  0  0
  4  5  1  0  0  0  0
  4  6  2  0  0  0  0
  6  7  1  0  0  0  0
  6  8  1  0  0  0  0
  8  9  1  0  0  0  0
  8 10  1  0  0  0  0
  8 11  1  0  0  0  0
 11 12  1  0  0  0  0
 11 13  1  0  0  0  0
 11 14  1  0  0  0  0
 14 15  1  0  0  0  0
 14 16  1  0  0  0  0
 14 17  1  0  0  0  0
M  END
> <VConfSearch Rank>
914

> <Conf_Id>
1

> <Delta U+W>
0.030

> <U+W>
-53.378

> <U>
9.048

> <W>
-62.426

> <W(PB)>
-64.506

> <W(SA)>
2.080

> <Valence>
2.652

> <Coulomb>
5.578

> <VdW>
0.818

> <VdW6>
-4.535

> <VdW12>
5.352

> <Bond>
0.063

> <Angle>
2.579

> <Pdih>
0.010

> <Idih>
0.000

> <Tether>
0.000

$$$$
VeraChem MOL file


 17 16  0  0  0  0  0  0  0  0999 V2000     
   22.7861   19.3028   20.7148 C   0  0  0  0  0  0  0  0  0  0  0  0
   22.8993   18.1787   20.2631 O   0  5  0  0  0  0  0  0  0  0  0  0
   23.4891   20.2297   20.3618 O   0  0  0  0  0  0  0  0  0  0  0  0
   21.7517   19.5794   21.7481 C   0  0  0  0  0  0  0  0  0  0  0  0
   21.7044   20.6039   22.1101 H   0  0  0  0  0  0  0  0  0  0  0  0
   20.9014   18.6458   22.2321 C   0  0  0  0  0  0  0  0  0  0  0  0
   20.9379   17.6172   21.8740 H   0  0  0  0  0  0  0  0  0  0  0  0
   19.8484   18.9357   23.2810 C   0  0  0  0  0  0  0  0  0  0  0  0
   20.2648   19.6056   24.0455 H   0  0  0  0  0  0  0  0  0  0  0  0
   19.5761   18.0081   23.8023 H   0  0  0  0  0  0  0  0  0  0  0  0
   18.5809   19.5808   22.6787 C   0  0  0  0  0  0  0  0  0  0  0  0
   17.9002   19.8640   23.4934 H   0  0  0  0  0  0  0  0  0  0  0  0
   18.8501   20.5100   22.1575 H   0  0  0  0  0  0  0  0  0  0  0  0
   17.8405   18.6360   21.7082 C   0  0  0  0  0  0  0  0  0  0  0  0
   17.5503   17.7047   22.2117 H   0  0  0  0  0  0  0  0  0  0  0  0
   16.9288   19.1129   21.3258 H   0  0  0  0  0  0  0  0  0  0  0  0
   18.4716   18.3783   20.8477 H   0  0  0  0  0  0  0  0  0  0  0  0
  1  2  1  0  0  0  0
  1  3  2  0  0  0  0
  1  4  1  0  0  0  0
  4  5  1  0  0  0  0
  4  6  2  0  0  0  0
  6  7  1  0  0  0  0
  6  8  1  0  0  0  0
  8  9  1  0  0  0  0
  8 10  1  0  0  0  0
  8 11  1  0  0  0  0
 11 12  1  0  0  0  0
 11 13  1  0  0  0  0
 11 14  1  0  0  0  0
 14 15  1  0  0  0  0
 14 16  1  0  0  0  0
 14 17  1  0  0  0  0
M  END
> <VConfSearch Rank>
915

> <Conf_Id>
3

> <Delta U+W>
0.531

> <U+W>
-52.878

> <U>
10.067

> <W>
-62.945

> <W(PB)>
-64.982

> <W(SA)>
2.037

> <Valence>
2.779

> <Coulomb>
6.474

> <VdW>
0.815

> <VdW6>
-5.088

> <VdW12>
5.902

> <Bond>
0.078

> <Angle>
2.651

> <Pdih>
0.050

> <Idih>
0.000

> <Tether>
0.000

$$$$
VeraChem MOL file


 17 16  0  0  0  0  0  0  0  0999 V2000     
   22.0648   21.0407   21.0811 C   0  0  0  0  0  0  0  0  0  0  0  0
   21.9256   22.0796   20.4655 O   0  5  0  0  0  0  0  0  0  0  0  0
   23.1094   20.4169   21.0960 O   0  0  0  0  0  0  0  0  0  0  0  0
   20.8934   20.5318   21.8446 C   0  0  0  0  0  0  0  0  0  0  0  0
   19.9918   21.1374   21.7885 H   0  0  0  0  0  0  0  0  0  0  0  0
   20.9051   19.3906   22.5706 C   0  0  0  0  0  0  0  0  0  0  0  0
   21.8031   18.7760   22.6292 H   0  0  0  0  0  0  0  0  0  0  0  0
   19.7101   18.8737   23.3445 C   0  0  0  0  0  0  0  0  0  0  0  0
   18.9690   19.6716   23.4894 H   0  0  0  0  0  0  0  0  0  0  0  0
   20.0363   18.5740   24.3494 H   0  0  0  0  0  0  0  0  0  0  0  0
   19.0424   17.6647   22.6533 C   0  0  0  0  0  0  0  0  0  0  0  0
   19.7837   16.8671   22.5056 H   0  0  0  0  0  0  0  0  0  0  0  0
   18.2685   17.2549   23.3168 H   0  0  0  0  0  0  0  0  0  0  0  0
   18.3996   18.0349   21.2996 C   0  0  0  0  0  0  0  0  0  0  0  0
   19.1550   18.3892   20.5861 H   0  0  0  0  0  0  0  0  0  0  0  0
   17.9021   17.1624   20.8570 H   0  0  0  0  0  0  0  0  0  0  0  0
   17.6491   18.8262   21.4247 H   0  0  0  0  0  0  0  0  0  0  0  0
  1  2  1  0  0  0  0
  1  3  2  0  0  0  0
  1  4  1  0  0  0  0
  4  5  1  0  0  0  0
  4  6  2  0  0  0  0
  6  7  1  0  0  0  0
  6  8  1  0  0  0  0
  8  9  1  0  0  0  0
  8 10  1  0  0  0  0
  8 11  1  0  0  0  0
 11 12  1  0  0  0  0
 11 13  1  0  0  0  0
 11 14  1  0  0  0  0
 14 15  1  0  0  0  0
 14 16  1  0  0  0  0
 14 17  1  0  0  0  0
M  END
> <VConfSearch Rank>
916

> <Conf_Id>
45

> <Delta U+W>
0.562

> <U+W>
-52.846

> <U>
10.243

> <W>
-63.089

> <W(PB)>
-65.116

> <W(SA)>
2.026

> <Valence>
2.822

> <Coulomb>
6.637

> <VdW>
0.785

> <VdW6>
-5.216

> <VdW12>
6.001

> <Bond>
0.080

> <Angle>
2.678

> <Pdih>
0.064

> <Idih>
0.000

> <Tether>
0.000

$$$$
VeraChem MOL file


 17 16  0  0  0  0  0  0  0  0999 V2000     
   21.7339   18.6399   24.7630 C   0  0  0  0  0  0  0  0  0  0  0  0
   21.3434   18.6502   25.9141 O   0  5  0  0  0  0  0  0  0  0  0  0
   22.9132   18.6722   24.4651 O   0  0  0  0  0  0  0  0  0  0  0  0
   20.7059   18.5835   23.6887 C   0  0  0  0  0  0  0  0  0  0  0  0
   19.6712   18.5566   24.0228 H   0  0  0  0  0  0  0  0  0  0  0  0
   20.9961   18.5675   22.3678 C   0  0  0  0  0  0  0  0  0  0  0  0
   22.0292   18.5965   22.0220 H   0  0  0  0  0  0  0  0  0  0  0  0
   19.9444   18.5122   21.2815 C   0  0  0  0  0  0  0  0  0  0  0  0
   19.1227   17.8504   21.5876 H   0  0  0  0  0  0  0  0  0  0  0  0
   20.3772   18.0731   20.3725 H   0  0  0  0  0  0  0  0  0  0  0  0
   19.3909   19.9163   20.9633 C   0  0  0  0  0  0  0  0  0  0  0  0
   18.9536   20.3554   21.8708 H   0  0  0  0  0  0  0  0  0  0  0  0
   20.2142   20.5758   20.6555 H   0  0  0  0  0  0  0  0  0  0  0  0
   18.3249   19.8698   19.8502 C   0  0  0  0  0  0  0  0  0  0  0  0
   18.7449   19.4638   18.9206 H   0  0  0  0  0  0  0  0  0  0  0  0
   17.4751   19.2408   20.1461 H   0  0  0  0  0  0  0  0  0  0  0  0
   17.9432   20.8770   19.6379 H   0  0  0  0  0  0  0  0  0  0  0  0
  1  2  1  0  0  0  0
  1  3  2  0  0  0  0
  1  4  1  0  0  0  0
  4  5  1  0  0  0  0
  4  6  2  0  0  0  0
  6  7  1  0  0  0  0
  6  8  1  0  0  0  0
  8  9  1  0  0  0  0
  8 10  1  0  0  0  0
  8 11  1  0  0  0  0
 11 12  1  0  0  0  0
 11 13  1  0  0  0  0
 11 14  1  0  0  0  0
 14 15  1  0  0  0  0
 14 16  1  0  0  0  0
 14 17  1  0  0  0  0
M  END
> <VConfSearch Rank>
917

> <Conf_Id>
36

> <Delta U+W>
0.000

> <U+W>
-53.409

> <U>
9.048

> <W>
-62.457

> <W(PB)>
-64.540

> <W(SA)>
2.084

> <Valence>
2.652

> <Coulomb>
5.578

> <VdW>
0.818

> <VdW6>
-4.534

> <VdW12>
5.352

> <Bond>
0.063

> <Angle>
2.579

> <Pdih>
0.010

> <Idih>
0.000

> <Tether>
0.000

$$$$
VeraChem MOL file


 17 16  0  0  0  0  0  0  0  0999 V2000     
   18.1070   16.4982   20.9106 C   0  0  0  0  0  0  0  0  0  0  0  0
   18.7016   15.4830   21.2208 O   0  5  0  0  0  0  0  0  0  0  0  0
   17.1297   16.4959   20.1876 O   0  0  0  0  0  0  0  0  0  0  0  0
   18.5767   17.8121   21.4275 C   0  0  0  0  0  0  0  0  0  0  0  0
   18.0010   18.6794   21.1124 H   0  0  0  0  0  0  0  0  0  0  0  0
   19.6486   17.9636   22.2382 C   0  0  0  0  0  0  0  0  0  0  0  0
   20.2338   17.1017   22.5582 H   0  0  0  0  0  0  0  0  0  0  0  0
   20.1208   19.3037   22.7580 C   0  0  0  0  0  0  0  0  0  0  0  0
   20.6775   19.1599   23.6938 H   0  0  0  0  0  0  0  0  0  0  0  0
   19.2573   19.9373   23.0023 H   0  0  0  0  0  0  0  0  0  0  0  0
   21.0181   20.0211   21.7288 C   0  0  0  0  0  0  0  0  0  0  0  0
   21.8822   19.3864   21.4877 H   0  0  0  0  0  0  0  0  0  0  0  0
   20.4613   20.1695   20.7931 H   0  0  0  0  0  0  0  0  0  0  0  0
   21.5113   21.3841   22.2548 C   0  0  0  0  0  0  0  0  0  0  0  0
   22.0989   21.2613   23.1741 H   0  0  0  0  0  0  0  0  0  0  0  0
   22.1476   21.8790   21.5096 H   0  0  0  0  0  0  0  0  0  0  0  0
   20.6661   22.0496   22.4743 H   0  0  0  0  0  0  0  0  0  0  0  0
  1  2  1  0  0  0  0
  1  3  2  0  0  0  0
  1  4  1  0  0  0  0
  4  5  1  0  0  0  0
  4  6  2  0  0  0  0
  6  7  1  0  0  0  0
  6  8  1  0  0  0  0
  8  9  1  0  0  0  0
  8 10  1  0  0  0  0
  8 11  1  0  0  0  0
 11 12  1  0  0  0  0
 11 13  1  0  0  0  0
 11 14  1  0  0  0  0
 14 15  1  0  0  0  0
 14 16  1  0  0  0  0
 14 17  1  0  0  0  0
M  END
> <VConfSearch Rank>
918

> <Conf_Id>
1

> <Delta U+W>
0.030

> <U+W>
-53.378

> <U>
9.048

> <W>
-62.426

> <W(PB)>
-64.506

> <W(SA)>
2.080

> <Valence>
2.652

> <Coulomb>
5.578

> <VdW>
0.818

> <VdW6>
-4.535

> <VdW12>
5.352

> <Bond>
0.063

> <Angle>
2.579

> <Pdih>
0.010

> <Idih>
0.000

> <Tether>
0.000

$$$$
VeraChem MOL file


 17 16  0  0  0  0  0  0  0  0999 V2000     
   17.3507   17.7058   21.3553 C   0  0  0  0  0  0  0  0  0  0  0  0
   16.6605   18.0816   22.2841 O   0  5  0  0  0  0  0  0  0  0  0  0
   16.8865   17.2158   20.3442 O   0  0  0  0  0  0  0  0  0  0  0  0
   18.8305   17.8380   21.4381 C   0  0  0  0  0  0  0  0  0  0  0  0
   19.3879   17.4822   20.5748 H   0  0  0  0  0  0  0  0  0  0  0  0
   19.4818   18.3646   22.5000 C   0  0  0  0  0  0  0  0  0  0  0  0
   18.9329   18.7272   23.3688 H   0  0  0  0  0  0  0  0  0  0  0  0
   20.9881   18.4995   22.5756 C   0  0  0  0  0  0  0  0  0  0  0  0
   21.4599   17.5994   22.1585 H   0  0  0  0  0  0  0  0  0  0  0  0
   21.3055   18.5529   23.6257 H   0  0  0  0  0  0  0  0  0  0  0  0
   21.5059   19.7406   21.8159 C   0  0  0  0  0  0  0  0  0  0  0  0
   22.6045   19.7289   21.8152 H   0  0  0  0  0  0  0  0  0  0  0  0
   21.1909   19.6894   20.7644 H   0  0  0  0  0  0  0  0  0  0  0  0
   21.0158   21.0639   22.4414 C   0  0  0  0  0  0  0  0  0  0  0  0
   21.3304   21.1427   23.4902 H   0  0  0  0  0  0  0  0  0  0  0  0
   21.4288   21.9238   21.8982 H   0  0  0  0  0  0  0  0  0  0  0  0
   19.9211   21.1376   22.4054 H   0  0  0  0  0  0  0  0  0  0  0  0
  1  2  1  0  0  0  0
  1  3  2  0  0  0  0
  1  4  1  0  0  0  0
  4  5  1  0  0  0  0
  4  6  2  0  0  0  0
  6  7  1  0  0  0  0
  6  8  1  0  0  0  0
  8  9  1  0  0  0  0
  8 10  1  0  0  0  0
  8 11  1  0  0  0  0
 11 12  1  0  0  0  0
 11 13  1  0  0  0  0
 11 14  1  0  0  0  0
 14 15  1  0  0  0  0
 14 16  1  0  0  0  0
 14 17  1  0  0  0  0
M  END
> <VConfSearch Rank>
919

> <Conf_Id>
3

> <Delta U+W>
0.531

> <U+W>
-52.878

> <U>
10.067

> <W>
-62.945

> <W(PB)>
-64.982

> <W(SA)>
2.037

> <Valence>
2.779

> <Coulomb>
6.474

> <VdW>
0.815

> <VdW6>
-5.088

> <VdW12>
5.902

> <Bond>
0.078

> <Angle>
2.651

> <Pdih>
0.050

> <Idih>
0.000

> <Tether>
0.000

$$$$
VeraChem MOL file


 17 16  0  0  0  0  0  0  0  0999 V2000     
   16.9762   19.1977   22.3992 C   0  0  0  0  0  0  0  0  0  0  0  0
   16.1076   19.2573   21.5509 O   0  5  0  0  0  0  0  0  0  0  0  0
   16.7931   19.5270   23.5561 O   0  0  0  0  0  0  0  0  0  0  0  0
   18.3123   18.6938   21.9807 C   0  0  0  0  0  0  0  0  0  0  0  0
   18.4075   18.4169   20.9333 H   0  0  0  0  0  0  0  0  0  0  0  0
   19.3692   18.5767   22.8165 C   0  0  0  0  0  0  0  0  0  0  0  0
   19.2835   18.8553   23.8666 H   0  0  0  0  0  0  0  0  0  0  0  0
   20.7290   18.0660   22.3869 C   0  0  0  0  0  0  0  0  0  0  0  0
   20.6561   17.5309   21.4302 H   0  0  0  0  0  0  0  0  0  0  0  0
   21.0842   17.3309   23.1214 H   0  0  0  0  0  0  0  0  0  0  0  0
   21.7707   19.2000   22.2692 C   0  0  0  0  0  0  0  0  0  0  0  0
   21.8423   19.7374   23.2249 H   0  0  0  0  0  0  0  0  0  0  0  0
   22.7599   18.7600   22.0818 H   0  0  0  0  0  0  0  0  0  0  0  0
   21.4401   20.1950   21.1362 C   0  0  0  0  0  0  0  0  0  0  0  0
   20.4854   20.7039   21.3220 H   0  0  0  0  0  0  0  0  0  0  0  0
   22.2205   20.9628   21.0568 H   0  0  0  0  0  0  0  0  0  0  0  0
   21.3712   19.6800   20.1692 H   0  0  0  0  0  0  0  0  0  0  0  0
  1  2  1  0  0  0  0
  1  3  2  0  0  0  0
  1  4  1  0  0  0  0
  4  5  1  0  0  0  0
  4  6  2  0  0  0  0
  6  7  1  0  0  0  0
  6  8  1  0  0  0  0
  8  9  1  0  0  0  0
  8 10  1  0  0  0  0
  8 11  1  0  0  0  0
 11 12  1  0  0  0  0
 11 13  1  0  0  0  0
 11 14  1  0  0  0  0
 14 15  1  0  0  0  0
 14 16  1  0  0  0  0
 14 17  1  0  0  0  0
M  END
> <VConfSearch Rank>
920

> <Conf_Id>
45

> <Delta U+W>
0.562

> <U+W>
-52.846

> <U>
10.243

> <W>
-63.089

> <W(PB)>
-65.116

> <W(SA)>
2.026

> <Valence>
2.822

> <Coulomb>
6.637

> <VdW>
0.785

> <VdW6>
-5.216

> <VdW12>
6.001

> <Bond>
0.080

> <Angle>
2.678

> <Pdih>
0.064

> <Idih>
0.000

> <Tether>
0.000

$$$$
VeraChem MOL file


 17 16  0  0  0  0  0  0  0  0999 V2000     
   21.1682   19.3887   18.7633 C   0  0  0  0  0  0  0  0  0  0  0  0
   21.1134   20.3334   18.0002 O   0  5  0  0  0  0  0  0  0  0  0  0
   21.4808   18.2683   18.4062 O   0  0  0  0  0  0  0  0  0  0  0  0
   20.8354   19.6386   20.1919 C   0  0  0  0  0  0  0  0  0  0  0  0
   20.5645   20.6613   20.4442 H   0  0  0  0  0  0  0  0  0  0  0  0
   20.8536   18.6827   21.1484 C   0  0  0  0  0  0  0  0  0  0  0  0
   21.1213   17.6543   20.9062 H   0  0  0  0  0  0  0  0  0  0  0  0
   20.5116   18.9448   22.5988 C   0  0  0  0  0  0  0  0  0  0  0  0
   20.9071   19.9222   22.9072 H   0  0  0  0  0  0  0  0  0  0  0  0
   21.0023   18.1947   23.2337 H   0  0  0  0  0  0  0  0  0  0  0  0
   18.9878   18.9023   22.8334 C   0  0  0  0  0  0  0  0  0  0  0  0
   18.4957   19.6551   22.2019 H   0  0  0  0  0  0  0  0  0  0  0  0
   18.5949   17.9231   22.5261 H   0  0  0  0  0  0  0  0  0  0  0  0
   18.6314   19.1592   24.3114 C   0  0  0  0  0  0  0  0  0  0  0  0
   19.0853   18.4008   24.9627 H   0  0  0  0  0  0  0  0  0  0  0  0
   18.9864   20.1464   24.6352 H   0  0  0  0  0  0  0  0  0  0  0  0
   17.5440   19.1252   24.4586 H   0  0  0  0  0  0  0  0  0  0  0  0
  1  2  1  0  0  0  0
  1  3  2  0  0  0  0
  1  4  1  0  0  0  0
  4  5  1  0  0  0  0
  4  6  2  0  0  0  0
  6  7  1  0  0  0  0
  6  8  1  0  0  0  0
  8  9  1  0  0  0  0
  8 10  1  0  0  0  0
  8 11  1  0  0  0  0
 11 12  1  0  0  0  0
 11 13  1  0  0  0  0
 11 14  1  0  0  0  0
 14 15  1  0  0  0  0
 14 16  1  0  0  0  0
 14 17  1  0  0  0  0
M  END
> <VConfSearch Rank>
921

> <Conf_Id>
36

> <Delta U+W>
0.000

> <U+W>
-53.409

> <U>
9.048

> <W>
-62.457

> <W(PB)>
-64.540

> <W(SA)>
2.084

> <Valence>
2.652

> <Coulomb>
5.578

> <VdW>
0.818

> <VdW6>
-4.534

> <VdW12>
5.352

> <Bond>
0.063

> <Angle>
2.579

> <Pdih>
0.010

> <Idih>
0.000

> <Tether>
0.000

$$$$
VeraChem MOL file


 17 16  0  0  0  0  0  0  0  0999 V2000     
   17.5582   20.3965   20.0037 C   0  0  0  0  0  0  0  0  0  0  0  0
   17.8564   21.5564   19.7891 O   0  5  0  0  0  0  0  0  0  0  0  0
   16.4665   19.9349   19.7338 O   0  0  0  0  0  0  0  0  0  0  0  0
   18.5573   19.4831   20.6215 C   0  0  0  0  0  0  0  0  0  0  0  0
   18.2270   18.4600   20.7862 H   0  0  0  0  0  0  0  0  0  0  0  0
   19.8073   19.8607   20.9737 C   0  0  0  0  0  0  0  0  0  0  0  0
   20.1479   20.8838   20.8152 H   0  0  0  0  0  0  0  0  0  0  0  0
   20.8167   18.9259   21.6033 C   0  0  0  0  0  0  0  0  0  0  0  0
   21.8327   19.2879   21.3957 H   0  0  0  0  0  0  0  0  0  0  0  0
   20.7409   17.9292   21.1475 H   0  0  0  0  0  0  0  0  0  0  0  0
   20.6085   18.8183   23.1278 C   0  0  0  0  0  0  0  0  0  0  0  0
   20.6870   19.8161   23.5816 H   0  0  0  0  0  0  0  0  0  0  0  0
   19.5938   18.4523   23.3371 H   0  0  0  0  0  0  0  0  0  0  0  0
   21.6395   17.8743   23.7785 C   0  0  0  0  0  0  0  0  0  0  0  0
   22.6630   18.2348   23.6111 H   0  0  0  0  0  0  0  0  0  0  0  0
   21.4757   17.8106   24.8621 H   0  0  0  0  0  0  0  0  0  0  0  0
   21.5608   16.8608   23.3638 H   0  0  0  0  0  0  0  0  0  0  0  0
  1  2  1  0  0  0  0
  1  3  2  0  0  0  0
  1  4  1  0  0  0  0
  4  5  1  0  0  0  0
  4  6  2  0  0  0  0
  6  7  1  0  0  0  0
  6  8  1  0  0  0  0
  8  9  1  0  0  0  0
  8 10  1  0  0  0  0
  8 11  1  0  0  0  0
 11 12  1  0  0  0  0
 11 13  1  0  0  0  0
 11 14  1  0  0  0  0
 14 15  1  0  0  0  0
 14 16  1  0  0  0  0
 14 17  1  0  0  0  0
M  END
> <VConfSearch Rank>
922

> <Conf_Id>
1

> <Delta U+W>
0.030

> <U+W>
-53.378

> <U>
9.048

> <W>
-62.426

> <W(PB)>
-64.506

> <W(SA)>
2.080

> <Valence>
2.652

> <Coulomb>
5.578

> <VdW>
0.818

> <VdW6>
-4.535

> <VdW12>
5.352

> <Bond>
0.063

> <Angle>
2.579

> <Pdih>
0.010

> <Idih>
0.000

> <Tether>
0.000

$$$$
VeraChem MOL file


 17 16  0  0  0  0  0  0  0  0999 V2000     
   21.8196   16.6471   21.5100 C   0  0  0  0  0  0  0  0  0  0  0  0
   21.8672   16.6748   20.2945 O   0  5  0  0  0  0  0  0  0  0  0  0
   22.5918   15.9955   22.1859 O   0  0  0  0  0  0  0  0  0  0  0  0
   20.7774   17.4341   22.2232 C   0  0  0  0  0  0  0  0  0  0  0  0
   20.7898   17.3646   23.3085 H   0  0  0  0  0  0  0  0  0  0  0  0
   19.8557   18.2031   21.6002 C   0  0  0  0  0  0  0  0  0  0  0  0
   19.8364   18.2826   20.5135 H   0  0  0  0  0  0  0  0  0  0  0  0
   18.8004   19.0044   22.3331 C   0  0  0  0  0  0  0  0  0  0  0  0
   18.4030   18.4128   23.1689 H   0  0  0  0  0  0  0  0  0  0  0  0
   17.9506   19.2004   21.6655 H   0  0  0  0  0  0  0  0  0  0  0  0
   19.3498   20.3420   22.8759 C   0  0  0  0  0  0  0  0  0  0  0  0
   18.5749   20.8280   23.4846 H   0  0  0  0  0  0  0  0  0  0  0  0
   20.1995   20.1491   23.5453 H   0  0  0  0  0  0  0  0  0  0  0  0
   19.7834   21.3040   21.7493 C   0  0  0  0  0  0  0  0  0  0  0  0
   18.9455   21.5213   21.0742 H   0  0  0  0  0  0  0  0  0  0  0  0
   20.1363   22.2551   22.1686 H   0  0  0  0  0  0  0  0  0  0  0  0
   20.6004   20.8749   21.1546 H   0  0  0  0  0  0  0  0  0  0  0  0
  1  2  1  0  0  0  0
  1  3  2  0  0  0  0
  1  4  1  0  0  0  0
  4  5  1  0  0  0  0
  4  6  2  0  0  0  0
  6  7  1  0  0  0  0
  6  8  1  0  0  0  0
  8  9  1  0  0  0  0
  8 10  1  0  0  0  0
  8 11  1  0  0  0  0
 11 12  1  0  0  0  0
 11 13  1  0  0  0  0
 11 14  1  0  0  0  0
 14 15  1  0  0  0  0
 14 16  1  0  0  0  0
 14 17  1  0  0  0  0
M  END
> <VConfSearch Rank>
923

> <Conf_Id>
3

> <Delta U+W>
0.531

> <U+W>
-52.878

> <U>
10.067

> <W>
-62.945

> <W(PB)>
-64.982

> <W(SA)>
2.037

> <Valence>
2.779

> <Coulomb>
6.474

> <VdW>
0.815

> <VdW6>
-5.088

> <VdW12>
5.902

> <Bond>
0.078

> <Angle>
2.651

> <Pdih>
0.050

> <Idih>
0.000

> <Tether>
0.000

$$$$
VeraChem MOL file


 17 16  0  0  0  0  0  0  0  0999 V2000     
   21.5601   17.4947   24.0857 C   0  0  0  0  0  0  0  0  0  0  0  0
   21.5784   16.2942   24.2765 O   0  5  0  0  0  0  0  0  0  0  0  0
   21.9203   18.3018   24.9219 O   0  0  0  0  0  0  0  0  0  0  0  0
   21.0748   17.9731   22.7629 C   0  0  0  0  0  0  0  0  0  0  0  0
   20.7685   17.1996   22.0625 H   0  0  0  0  0  0  0  0  0  0  0  0
   20.9986   19.2780   22.4152 C   0  0  0  0  0  0  0  0  0  0  0  0
   21.3000   20.0596   23.1123 H   0  0  0  0  0  0  0  0  0  0  0  0
   20.5016   19.7621   21.0687 C   0  0  0  0  0  0  0  0  0  0  0  0
   20.5116   18.9437   20.3361 H   0  0  0  0  0  0  0  0  0  0  0  0
   21.1926   20.5242   20.6845 H   0  0  0  0  0  0  0  0  0  0  0  0
   19.0833   20.3678   21.1507 C   0  0  0  0  0  0  0  0  0  0  0  0
   19.0717   21.1849   21.8853 H   0  0  0  0  0  0  0  0  0  0  0  0
   18.8278   20.8149   20.1801 H   0  0  0  0  0  0  0  0  0  0  0  0
   18.0107   19.3208   21.5200 C   0  0  0  0  0  0  0  0  0  0  0  0
   18.1970   18.8970   22.5153 H   0  0  0  0  0  0  0  0  0  0  0  0
   17.0127   19.7777   21.5304 H   0  0  0  0  0  0  0  0  0  0  0  0
   17.9993   18.4976   20.7938 H   0  0  0  0  0  0  0  0  0  0  0  0
  1  2  1  0  0  0  0
  1  3  2  0  0  0  0
  1  4  1  0  0  0  0
  4  5  1  0  0  0  0
  4  6  2  0  0  0  0
  6  7  1  0  0  0  0
  6  8  1  0  0  0  0
  8  9  1  0  0  0  0
  8 10  1  0  0  0  0
  8 11  1  0  0  0  0
 11 12  1  0  0  0  0
 11 13  1  0  0  0  0
 11 14  1  0  0  0  0
 14 15  1  0  0  0  0
 14 16  1  0  0  0  0
 14 17  1  0  0  0  0
M  END
> <VConfSearch Rank>
924

> <Conf_Id>
45

> <Delta U+W>
0.562

> <U+W>
-52.846

> <U>
10.243

> <W>
-63.089

> <W(PB)>
-65.116

> <W(SA)>
2.026

> <Valence>
2.822

> <Coulomb>
6.637

> <VdW>
0.785

> <VdW6>
-5.216

> <VdW12>
6.001

> <Bond>
0.080

> <Angle>
2.678

> <Pdih>
0.064

> <Idih>
0.000

> <Tether>
0.000

$$$$
VeraChem MOL file


 17 16  0  0  0  0  0  0  0  0999 V2000     
   21.5065   21.3627   19.9016 C   0  0  0  0  0  0  0  0  0  0  0  0
   21.0151   22.1227   19.0900 O   0  5  0  0  0  0  0  0  0  0  0  0
   22.7006   21.1351   19.9550 O   0  0  0  0  0  0  0  0  0  0  0  0
   20.5873   20.6946   20.8623 C   0  0  0  0  0  0  0  0  0  0  0  0
   19.5331   20.9416   20.7605 H   0  0  0  0  0  0  0  0  0  0  0  0
   20.9948   19.8263   21.8157 C   0  0  0  0  0  0  0  0  0  0  0  0
   22.0484   19.5699   21.9250 H   0  0  0  0  0  0  0  0  0  0  0  0
   20.0531   19.1493   22.7875 C   0  0  0  0  0  0  0  0  0  0  0  0
   19.2671   19.8507   23.0991 H   0  0  0  0  0  0  0  0  0  0  0  0
   20.6016   18.8703   23.6973 H   0  0  0  0  0  0  0  0  0  0  0  0
   19.4121   17.8920   22.1652 C   0  0  0  0  0  0  0  0  0  0  0  0
   18.8594   18.1701   21.2571 H   0  0  0  0  0  0  0  0  0  0  0  0
   20.2001   17.1912   21.8562 H   0  0  0  0  0  0  0  0  0  0  0  0
   18.4579   17.1908   23.1528 C   0  0  0  0  0  0  0  0  0  0  0  0
   18.9926   16.8734   24.0577 H   0  0  0  0  0  0  0  0  0  0  0  0
   17.6421   17.8610   23.4538 H   0  0  0  0  0  0  0  0  0  0  0  0
   18.0118   16.2994   22.6927 H   0  0  0  0  0  0  0  0  0  0  0  0
  1  2  1  0  0  0  0
  1  3  2  0  0  0  0
  1  4  1  0  0  0  0
  4  5  1  0  0  0  0
  4  6  2  0  0  0  0
  6  7  1  0  0  0  0
  6  8  1  0  0  0  0
  8  9  1  0  0  0  0
  8 10  1  0  0  0  0
  8 11  1  0  0  0  0
 11 12  1  0  0  0  0
 11 13  1  0  0  0  0
 11 14  1  0  0  0  0
 14 15  1  0  0  0  0
 14 16  1  0  0  0  0
 14 17  1  0  0  0  0
M  END
> <VConfSearch Rank>
925

> <Conf_Id>
36

> <Delta U+W>
0.000

> <U+W>
-53.409

> <U>
9.048

> <W>
-62.457

> <W(PB)>
-64.540

> <W(SA)>
2.084

> <Valence>
2.652

> <Coulomb>
5.578

> <VdW>
0.818

> <VdW6>
-4.534

> <VdW12>
5.352

> <Bond>
0.063

> <Angle>
2.579

> <Pdih>
0.010

> <Idih>
0.000

> <Tether>
0.000

$$$$
VeraChem MOL file


 17 16  0  0  0  0  0  0  0  0999 V2000     
   21.4969   17.3576   19.4304 C   0  0  0  0  0  0  0  0  0  0  0  0
   20.8490   16.3393   19.2764 O   0  5  0  0  0  0  0  0  0  0  0  0
   22.5786   17.5374   18.9057 O   0  0  0  0  0  0  0  0  0  0  0  0
   20.9619   18.4455   20.2932 C   0  0  0  0  0  0  0  0  0  0  0  0
   21.5903   19.3281   20.3885 H   0  0  0  0  0  0  0  0  0  0  0  0
   19.7751   18.3811   20.9385 C   0  0  0  0  0  0  0  0  0  0  0  0
   19.1386   17.5007   20.8518 H   0  0  0  0  0  0  0  0  0  0  0  0
   19.2392   19.4914   21.8156 C   0  0  0  0  0  0  0  0  0  0  0  0
   18.1436   19.4280   21.8609 H   0  0  0  0  0  0  0  0  0  0  0  0
   19.4776   20.4681   21.3729 H   0  0  0  0  0  0  0  0  0  0  0  0
   19.8202   19.4107   23.2421 C   0  0  0  0  0  0  0  0  0  0  0  0
   19.5786   18.4338   23.6836 H   0  0  0  0  0  0  0  0  0  0  0  0
   20.9162   19.4781   23.1989 H   0  0  0  0  0  0  0  0  0  0  0  0
   19.2717   20.5336   24.1452 C   0  0  0  0  0  0  0  0  0  0  0  0
   18.1790   20.4702   24.2313 H   0  0  0  0  0  0  0  0  0  0  0  0
   19.6959   20.4599   25.1550 H   0  0  0  0  0  0  0  0  0  0  0  0
   19.5271   21.5223   23.7417 H   0  0  0  0  0  0  0  0  0  0  0  0
  1  2  1  0  0  0  0
  1  3  2  0  0  0  0
  1  4  1  0  0  0  0
  4  5  1  0  0  0  0
  4  6  2  0  0  0  0
  6  7  1  0  0  0  0
  6  8  1  0  0  0  0
  8  9  1  0  0  0  0
  8 10  1  0  0  0  0
  8 11  1  0  0  0  0
 11 12  1  0  0  0  0
 11 13  1  0  0  0  0
 11 14  1  0  0  0  0
 14 15  1  0  0  0  0
 14 16  1  0  0  0  0
 14 17  1  0  0  0  0
M  END
> <VConfSearch Rank>
926

> <Conf_Id>
1

> <Delta U+W>
0.030

> <U+W>
-53.378

> <U>
9.048

> <W>
-62.426

> <W(PB)>
-64.506

> <W(SA)>
2.080

> <Valence>
2.652

> <Coulomb>
5.578

> <VdW>
0.818

> <VdW6>
-4.535

> <VdW12>
5.352

> <Bond>
0.063

> <Angle>
2.579

> <Pdih>
0.010

> <Idih>
0.000

> <Tether>
0.000

$$$$
VeraChem MOL file


 17 16  0  0  0  0  0  0  0  0999 V2000     
   19.4955   18.7854   19.0276 C   0  0  0  0  0  0  0  0  0  0  0  0
   19.9928   17.6931   18.8278 O   0  5  0  0  0  0  0  0  0  0  0  0
   18.7440   19.3227   18.2374 O   0  0  0  0  0  0  0  0  0  0  0  0
   19.8081   19.5169   20.2850 C   0  0  0  0  0  0  0  0  0  0  0  0
   19.3317   20.4877   20.4005 H   0  0  0  0  0  0  0  0  0  0  0  0
   20.6252   19.0397   21.2513 C   0  0  0  0  0  0  0  0  0  0  0  0
   21.1051   18.0668   21.1474 H   0  0  0  0  0  0  0  0  0  0  0  0
   20.9357   19.7884   22.5304 C   0  0  0  0  0  0  0  0  0  0  0  0
   21.0755   20.8550   22.3082 H   0  0  0  0  0  0  0  0  0  0  0  0
   21.8885   19.4351   22.9473 H   0  0  0  0  0  0  0  0  0  0  0  0
   19.8204   19.6333   23.5876 C   0  0  0  0  0  0  0  0  0  0  0  0
   20.0481   20.2786   24.4472 H   0  0  0  0  0  0  0  0  0  0  0  0
   18.8660   19.9872   23.1737 H   0  0  0  0  0  0  0  0  0  0  0  0
   19.6671   18.1773   24.0764 C   0  0  0  0  0  0  0  0  0  0  0  0
   20.6067   17.8063   24.5062 H   0  0  0  0  0  0  0  0  0  0  0  0
   18.8908   18.1095   24.8495 H   0  0  0  0  0  0  0  0  0  0  0  0
   19.3803   17.5109   23.2524 H   0  0  0  0  0  0  0  0  0  0  0  0
  1  2  1  0  0  0  0
  1  3  2  0  0  0  0
  1  4  1  0  0  0  0
  4  5  1  0  0  0  0
  4  6  2  0  0  0  0
  6  7  1  0  0  0  0
  6  8  1  0  0  0  0
  8  9  1  0  0  0  0
  8 10  1  0  0  0  0
  8 11  1  0  0  0  0
 11 12  1  0  0  0  0
 11 13  1  0  0  0  0
 11 14  1  0  0  0  0
 14 15  1  0  0  0  0
 14 16  1  0  0  0  0
 14 17  1  0  0  0  0
M  END
> <VConfSearch Rank>
927

> <Conf_Id>
3

> <Delta U+W>
0.531

> <U+W>
-52.878

> <U>
10.067

> <W>
-62.945

> <W(PB)>
-64.982

> <W(SA)>
2.037

> <Valence>
2.779

> <Coulomb>
6.474

> <VdW>
0.815

> <VdW6>
-5.088

> <VdW12>
5.902

> <Bond>
0.078

> <Angle>
2.651

> <Pdih>
0.050

> <Idih>
0.000

> <Tether>
0.000

$$$$
VeraChem MOL file


 17 16  0  0  0  0  0  0  0  0999 V2000     
   17.3556   19.4253   20.6135 C   0  0  0  0  0  0  0  0  0  0  0  0
   16.3011   18.8423   20.7745 O   0  5  0  0  0  0  0  0  0  0  0  0
   17.6392   20.0044   19.5817 O   0  0  0  0  0  0  0  0  0  0  0  0
   18.3241   19.4187   21.7432 C   0  0  0  0  0  0  0  0  0  0  0  0
   18.0079   18.8832   22.6353 H   0  0  0  0  0  0  0  0  0  0  0  0
   19.5334   20.0233   21.7025 C   0  0  0  0  0  0  0  0  0  0  0  0
   19.8596   20.5589   20.8113 H   0  0  0  0  0  0  0  0  0  0  0  0
   20.5183   20.0126   22.8532 C   0  0  0  0  0  0  0  0  0  0  0  0
   20.0156   19.7347   23.7896 H   0  0  0  0  0  0  0  0  0  0  0  0
   20.9042   21.0296   23.0042 H   0  0  0  0  0  0  0  0  0  0  0  0
   21.7061   19.0588   22.5992 C   0  0  0  0  0  0  0  0  0  0  0  0
   22.2080   19.3344   21.6613 H   0  0  0  0  0  0  0  0  0  0  0  0
   22.4466   19.1870   23.4008 H   0  0  0  0  0  0  0  0  0  0  0  0
   21.2767   17.5771   22.5436 C   0  0  0  0  0  0  0  0  0  0  0  0
   20.5838   17.3964   21.7116 H   0  0  0  0  0  0  0  0  0  0  0  0
   22.1498   16.9272   22.4013 H   0  0  0  0  0  0  0  0  0  0  0  0
   20.7790   17.2775   23.4751 H   0  0  0  0  0  0  0  0  0  0  0  0
  1  2  1  0  0  0  0
  1  3  2  0  0  0  0
  1  4  1  0  0  0  0
  4  5  1  0  0  0  0
  4  6  2  0  0  0  0
  6  7  1  0  0  0  0
  6  8  1  0  0  0  0
  8  9  1  0  0  0  0
  8 10  1  0  0  0  0
  8 11  1  0  0  0  0
 11 12  1  0  0  0  0
 11 13  1  0  0  0  0
 11 14  1  0  0  0  0
 14 15  1  0  0  0  0
 14 16  1  0  0  0  0
 14 17  1  0  0  0  0
M  END
> <VConfSearch Rank>
928

> <Conf_Id>
45

> <Delta U+W>
0.562

> <U+W>
-52.846

> <U>
10.243

> <W>
-63.089

> <W(PB)>
-65.116

> <W(SA)>
2.026

> <Valence>
2.822

> <Coulomb>
6.637

> <VdW>
0.785

> <VdW6>
-5.216

> <VdW12>
6.001

> <Bond>
0.080

> <Angle>
2.678

> <Pdih>
0.064

> <Idih>
0.000

> <Tether>
0.000

$$$$
VeraChem MOL file


 17 16  0  0  0  0  0  0  0  0999 V2000     
   18.4739   16.1242   22.2433 C   0  0  0  0  0  0  0  0  0  0  0  0
   18.0498   15.3777   21.3827 O   0  5  0  0  0  0  0  0  0  0  0  0
   18.2036   15.9942   23.4224 O   0  0  0  0  0  0  0  0  0  0  0  0
   19.3616   17.2375   21.8112 C   0  0  0  0  0  0  0  0  0  0  0  0
   19.5632   17.2969   20.7441 H   0  0  0  0  0  0  0  0  0  0  0  0
   19.9030   18.1420   22.6584 C   0  0  0  0  0  0  0  0  0  0  0  0
   19.7057   18.0932   23.7291 H   0  0  0  0  0  0  0  0  0  0  0  0
   20.8032   19.2726   22.2105 C   0  0  0  0  0  0  0  0  0  0  0  0
   21.4689   18.9272   21.4078 H   0  0  0  0  0  0  0  0  0  0  0  0
   21.4507   19.5792   23.0431 H   0  0  0  0  0  0  0  0  0  0  0  0
   19.9831   20.4839   21.7214 C   0  0  0  0  0  0  0  0  0  0  0  0
   19.3378   20.1798   20.8855 H   0  0  0  0  0  0  0  0  0  0  0  0
   19.3195   20.8288   22.5266 H   0  0  0  0  0  0  0  0  0  0  0  0
   20.8934   21.6443   21.2718 C   0  0  0  0  0  0  0  0  0  0  0  0
   21.5276   21.9894   22.0989 H   0  0  0  0  0  0  0  0  0  0  0  0
   21.5462   21.3341   20.4454 H   0  0  0  0  0  0  0  0  0  0  0  0
   20.2925   22.4961   20.9275 H   0  0  0  0  0  0  0  0  0  0  0  0
  1  2  1  0  0  0  0
  1  3  2  0  0  0  0
  1  4  1  0  0  0  0
  4  5  1  0  0  0  0
  4  6  2  0  0  0  0
  6  7  1  0  0  0  0
  6  8  1  0  0  0  0
  8  9  1  0  0  0  0
  8 10  1  0  0  0  0
  8 11  1  0  0  0  0
 11 12  1  0  0  0  0
 11 13  1  0  0  0  0
 11 14  1  0  0  0  0
 14 15  1  0  0  0  0
 14 16  1  0  0  0  0
 14 17  1  0  0  0  0
M  END
> <VConfSearch Rank>
929

> <Conf_Id>
36

> <Delta U+W>
0.000

> <U+W>
-53.409

> <U>
9.048

> <W>
-62.457

> <W(PB)>
-64.540

> <W(SA)>
2.084

> <Valence>
2.652

> <Coulomb>
5.578

> <VdW>
0.818

> <VdW6>
-4.534

> <VdW12>
5.352

> <Bond>
0.063

> <Angle>
2.579

> <Pdih>
0.010

> <Idih>
0.000

> <Tether>
0.000

$$$$
VeraChem MOL file


 17 16  0  0  0  0  0  0  0  0999 V2000     
   21.8082   16.4897   20.7388 C   0  0  0  0  0  0  0  0  0  0  0  0
   21.1397   15.9653   19.8679 O   0  5  0  0  0  0  0  0  0  0  0  0
   22.8170   15.9842   21.1910 O   0  0  0  0  0  0  0  0  0  0  0  0
   21.3938   17.8085   21.2895 C   0  0  0  0  0  0  0  0  0  0  0  0
   22.0348   18.2217   22.0649 H   0  0  0  0  0  0  0  0  0  0  0  0
   20.2954   18.4840   20.8817 C   0  0  0  0  0  0  0  0  0  0  0  0
   19.6450   18.0783   20.1070 H   0  0  0  0  0  0  0  0  0  0  0  0
   19.8799   19.8240   21.4483 C   0  0  0  0  0  0  0  0  0  0  0  0
   19.2715   20.3631   20.7095 H   0  0  0  0  0  0  0  0  0  0  0  0
   20.7672   20.4443   21.6348 H   0  0  0  0  0  0  0  0  0  0  0  0
   19.0774   19.6573   22.7548 C   0  0  0  0  0  0  0  0  0  0  0  0
   18.1893   19.0384   22.5653 H   0  0  0  0  0  0  0  0  0  0  0  0
   19.6862   19.1217   23.4965 H   0  0  0  0  0  0  0  0  0  0  0  0
   18.6421   21.0184   23.3339 C   0  0  0  0  0  0  0  0  0  0  0  0
   18.0050   21.5619   22.6239 H   0  0  0  0  0  0  0  0  0  0  0  0
   18.0730   20.8796   24.2623 H   0  0  0  0  0  0  0  0  0  0  0  0
   19.5142   21.6454   23.5616 H   0  0  0  0  0  0  0  0  0  0  0  0
  1  2  1  0  0  0  0
  1  3  2  0  0  0  0
  1  4  1  0  0  0  0
  4  5  1  0  0  0  0
  4  6  2  0  0  0  0
  6  7  1  0  0  0  0
  6  8  1  0  0  0  0
  8  9  1  0  0  0  0
  8 10  1  0  0  0  0
  8 11  1  0  0  0  0
 11 12  1  0  0  0  0
 11 13  1  0  0  0  0
 11 14  1  0  0  0  0
 14 15  1  0  0  0  0
 14 16  1  0  0  0  0
 14 17  1  0  0  0  0
M  END
> <VConfSearch Rank>
930

> <Conf_Id>
1

> <Delta U+W>
0.030

> <U+W>
-53.378

> <U>
9.048

> <W>
-62.426

> <W(PB)>
-64.506

> <W(SA)>
2.080

> <Valence>
2.652

> <Coulomb>
5.578

> <VdW>
0.818

> <VdW6>
-4.535

> <VdW12>
5.352

> <Bond>
0.063

> <Angle>
2.579

> <Pdih>
0.010

> <Idih>
0.000

> <Tether>
0.000

$$$$
VeraChem MOL file


 17 16  0  0  0  0  0  0  0  0999 V2000     
   17.7645   17.8813   20.3263 C   0  0  0  0  0  0  0  0  0  0  0  0
   16.9700   17.5669   21.1925 O   0  5  0  0  0  0  0  0  0  0  0  0
   17.4649   17.9515   19.1502 O   0  0  0  0  0  0  0  0  0  0  0  0
   19.1710   18.1947   20.6971 C   0  0  0  0  0  0  0  0  0  0  0  0
   19.8291   18.4674   19.8754 H   0  0  0  0  0  0  0  0  0  0  0  0
   19.6423   18.1585   21.9642 C   0  0  0  0  0  0  0  0  0  0  0  0
   18.9907   17.8899   22.7955 H   0  0  0  0  0  0  0  0  0  0  0  0
   21.0743   18.4826   22.3346 C   0  0  0  0  0  0  0  0  0  0  0  0
   21.7546   18.0505   21.5882 H   0  0  0  0  0  0  0  0  0  0  0  0
   21.3286   18.0077   23.2918 H   0  0  0  0  0  0  0  0  0  0  0  0
   21.3270   20.0034   22.4295 C   0  0  0  0  0  0  0  0  0  0  0  0
   22.3987   20.1798   22.5953 H   0  0  0  0  0  0  0  0  0  0  0  0
   21.0746   20.4812   21.4727 H   0  0  0  0  0  0  0  0  0  0  0  0
   20.5244   20.6663   23.5693 C   0  0  0  0  0  0  0  0  0  0  0  0
   20.7702   20.2124   24.5382 H   0  0  0  0  0  0  0  0  0  0  0  0
   20.7529   21.7382   23.6294 H   0  0  0  0  0  0  0  0  0  0  0  0
   19.4438   20.5614   23.4058 H   0  0  0  0  0  0  0  0  0  0  0  0
  1  2  1  0  0  0  0
  1  3  2  0  0  0  0
  1  4  1  0  0  0  0
  4  5  1  0  0  0  0
  4  6  2  0  0  0  0
  6  7  1  0  0  0  0
  6  8  1  0  0  0  0
  8  9  1  0  0  0  0
  8 10  1  0  0  0  0
  8 11  1  0  0  0  0
 11 12  1  0  0  0  0
 11 13  1  0  0  0  0
 11 14  1  0  0  0  0
 14 15  1  0  0  0  0
 14 16  1  0  0  0  0
 14 17  1  0  0  0  0
M  END
> <VConfSearch Rank>
931

> <Conf_Id>
3

> <Delta U+W>
0.531

> <U+W>
-52.878

> <U>
10.067

> <W>
-62.945

> <W(PB)>
-64.982

> <W(SA)>
2.037

> <Valence>
2.779

> <Coulomb>
6.474

> <VdW>
0.815

> <VdW6>
-5.088

> <VdW12>
5.902

> <Bond>
0.078

> <Angle>
2.651

> <Pdih>
0.050

> <Idih>
0.000

> <Tether>
0.000

$$$$
VeraChem MOL file


 17 16  0  0  0  0  0  0  0  0999 V2000     
   22.0861   21.2474   21.8385 C   0  0  0  0  0  0  0  0  0  0  0  0
   22.5431   21.9822   22.6923 O   0  5  0  0  0  0  0  0  0  0  0  0
   22.1512   21.4963   20.6493 O   0  0  0  0  0  0  0  0  0  0  0  0
   21.4260   19.9935   22.2923 C   0  0  0  0  0  0  0  0  0  0  0  0
   21.4025   19.8327   23.3676 H   0  0  0  0  0  0  0  0  0  0  0  0
   20.8730   19.0870   21.4543 C   0  0  0  0  0  0  0  0  0  0  0  0
   20.8889   19.2421   20.3758 H   0  0  0  0  0  0  0  0  0  0  0  0
   20.1992   17.8127   21.9195 C   0  0  0  0  0  0  0  0  0  0  0  0
   20.4859   17.5795   22.9540 H   0  0  0  0  0  0  0  0  0  0  0  0
   20.5568   16.9741   21.3072 H   0  0  0  0  0  0  0  0  0  0  0  0
   18.6605   17.8905   21.8125 C   0  0  0  0  0  0  0  0  0  0  0  0
   18.3729   18.1264   20.7785 H   0  0  0  0  0  0  0  0  0  0  0  0
   18.2351   16.9031   22.0390 H   0  0  0  0  0  0  0  0  0  0  0  0
   18.0503   18.9334   22.7731 C   0  0  0  0  0  0  0  0  0  0  0  0
   18.4035   19.9452   22.5356 H   0  0  0  0  0  0  0  0  0  0  0  0
   16.9552   18.9332   22.6980 H   0  0  0  0  0  0  0  0  0  0  0  0
   18.3189   18.7125   23.8143 H   0  0  0  0  0  0  0  0  0  0  0  0
  1  2  1  0  0  0  0
  1  3  2  0  0  0  0
  1  4  1  0  0  0  0
  4  5  1  0  0  0  0
  4  6  2  0  0  0  0
  6  7  1  0  0  0  0
  6  8  1  0  0  0  0
  8  9  1  0  0  0  0
  8 10  1  0  0  0  0
  8 11  1  0  0  0  0
 11 12  1  0  0  0  0
 11 13  1  0  0  0  0
 11 14  1  0  0  0  0
 14 15  1  0  0  0  0
 14 16  1  0  0  0  0
 14 17  1  0  0  0  0
M  END
> <VConfSearch Rank>
932

> <Conf_Id>
45

> <Delta U+W>
0.562

> <U+W>
-52.846

> <U>
10.243

> <W>
-63.089

> <W(PB)>
-65.116

> <W(SA)>
2.026

> <Valence>
2.822

> <Coulomb>
6.637

> <VdW>
0.785

> <VdW6>
-5.216

> <VdW12>
6.001

> <Bond>
0.080

> <Angle>
2.678

> <Pdih>
0.064

> <Idih>
0.000

> <Tether>
0.000

$$$$
VeraChem MOL file


 17 16  0  0  0  0  0  0  0  0999 V2000     
   19.0462   17.2188   19.2914 C   0  0  0  0  0  0  0  0  0  0  0  0
   19.6286   16.2922   18.7623 O   0  5  0  0  0  0  0  0  0  0  0  0
   18.0827   17.7666   18.7894 O   0  0  0  0  0  0  0  0  0  0  0  0
   19.5514   17.6847   20.6112 C   0  0  0  0  0  0  0  0  0  0  0  0
   20.4150   17.1526   21.0035 H   0  0  0  0  0  0  0  0  0  0  0  0
   19.0028   18.7035   21.3114 C   0  0  0  0  0  0  0  0  0  0  0  0
   18.1389   19.2450   20.9265 H   0  0  0  0  0  0  0  0  0  0  0  0
   19.5242   19.1725   22.6520 C   0  0  0  0  0  0  0  0  0  0  0  0
   19.8431   18.3104   23.2535 H   0  0  0  0  0  0  0  0  0  0  0  0
   18.7147   19.6611   23.2110 H   0  0  0  0  0  0  0  0  0  0  0  0
   20.7017   20.1546   22.4847 C   0  0  0  0  0  0  0  0  0  0  0  0
   21.5142   19.6658   21.9292 H   0  0  0  0  0  0  0  0  0  0  0  0
   20.3797   21.0170   21.8845 H   0  0  0  0  0  0  0  0  0  0  0  0
   21.2329   20.6448   23.8467 C   0  0  0  0  0  0  0  0  0  0  0  0
   20.4478   21.1661   24.4101 H   0  0  0  0  0  0  0  0  0  0  0  0
   21.5904   19.8035   24.4548 H   0  0  0  0  0  0  0  0  0  0  0  0
   22.0695   21.3418   23.7074 H   0  0  0  0  0  0  0  0  0  0  0  0
  1  2  1  0  0  0  0
  1  3  2  0  0  0  0
  1  4  1  0  0  0  0
  4  5  1  0  0  0  0
  4  6  2  0  0  0  0
  6  7  1  0  0  0  0
  6  8  1  0  0  0  0
  8  9  1  0  0  0  0
  8 10  1  0  0  0  0
  8 11  1  0  0  0  0
 11 12  1  0  0  0  0
 11 13  1  0  0  0  0
 11 14  1  0  0  0  0
 14 15  1  0  0  0  0
 14 16  1  0  0  0  0
 14 17  1  0  0  0  0
M  END
> <VConfSearch Rank>
933

> <Conf_Id>
36

> <Delta U+W>
0.000

> <U+W>
-53.409

> <U>
9.048

> <W>
-62.457

> <W(PB)>
-64.540

> <W(SA)>
2.084

> <Valence>
2.652

> <Coulomb>
5.578

> <VdW>
0.818

> <VdW6>
-4.534

> <VdW12>
5.352

> <Bond>
0.063

> <Angle>
2.579

> <Pdih>
0.010

> <Idih>
0.000

> <Tether>
0.000

$$$$
VeraChem MOL file


 17 16  0  0  0  0  0  0  0  0999 V2000     
   20.2800   15.7424   21.6332 C   0  0  0  0  0  0  0  0  0  0  0  0
   19.1470   15.3014   21.5883 O   0  5  0  0  0  0  0  0  0  0  0  0
   21.2590   15.0345   21.7677 O   0  0  0  0  0  0  0  0  0  0  0  0
   20.5027   17.2093   21.5193 C   0  0  0  0  0  0  0  0  0  0  0  0
   21.5386   17.5372   21.5670 H   0  0  0  0  0  0  0  0  0  0  0  0
   19.5081   18.1131   21.3674 C   0  0  0  0  0  0  0  0  0  0  0  0
   18.4665   17.7957   21.3206 H   0  0  0  0  0  0  0  0  0  0  0  0
   19.7430   19.6034   21.2542 C   0  0  0  0  0  0  0  0  0  0  0  0
   18.9064   20.0677   20.7148 H   0  0  0  0  0  0  0  0  0  0  0  0
   20.6452   19.7972   20.6581 H   0  0  0  0  0  0  0  0  0  0  0  0
   19.8872   20.2568   22.6439 C   0  0  0  0  0  0  0  0  0  0  0  0
   18.9828   20.0634   23.2375 H   0  0  0  0  0  0  0  0  0  0  0  0
   20.7264   19.7962   23.1834 H   0  0  0  0  0  0  0  0  0  0  0  0
   20.1177   21.7776   22.5375 C   0  0  0  0  0  0  0  0  0  0  0  0
   19.2769   22.2679   22.0294 H   0  0  0  0  0  0  0  0  0  0  0  0
   20.2177   22.2244   23.5352 H   0  0  0  0  0  0  0  0  0  0  0  0
   21.0342   21.9976   21.9743 H   0  0  0  0  0  0  0  0  0  0  0  0
  1  2  1  0  0  0  0
  1  3  2  0  0  0  0
  1  4  1  0  0  0  0
  4  5  1  0  0  0  0
  4  6  2  0  0  0  0
  6  7  1  0  0  0  0
  6  8  1  0  0  0  0
  8  9  1  0  0  0  0
  8 10  1  0  0  0  0
  8 11  1  0  0  0  0
 11 12  1  0  0  0  0
 11 13  1  0  0  0  0
 11 14  1  0  0  0  0
 14 15  1  0  0  0  0
 14 16  1  0  0  0  0
 14 17  1  0  0  0  0
M  END
> <VConfSearch Rank>
934

> <Conf_Id>
1

> <Delta U+W>
0.030

> <U+W>
-53.378

> <U>
9.048

> <W>
-62.426

> <W(PB)>
-64.506

> <W(SA)>
2.080

> <Valence>
2.652

> <Coulomb>
5.578

> <VdW>
0.818

> <VdW6>
-4.535

> <VdW12>
5.352

> <Bond>
0.063

> <Angle>
2.579

> <Pdih>
0.010

> <Idih>
0.000

> <Tether>
0.000

$$$$
VeraChem MOL file


 17 16  0  0  0  0  0  0  0  0999 V2000     
   19.2937   19.9438   19.1789 C   0  0  0  0  0  0  0  0  0  0  0  0
   18.2947   20.6048   19.3924 O   0  5  0  0  0  0  0  0  0  0  0  0
   19.9021   19.9883   18.1274 O   0  0  0  0  0  0  0  0  0  0  0  0
   19.8109   19.0311   20.2342 C   0  0  0  0  0  0  0  0  0  0  0  0
   20.7061   18.4690   19.9786 H   0  0  0  0  0  0  0  0  0  0  0  0
   19.2367   18.8823   21.4496 C   0  0  0  0  0  0  0  0  0  0  0  0
   18.3416   19.4432   21.7174 H   0  0  0  0  0  0  0  0  0  0  0  0
   19.7712   17.9543   22.5202 C   0  0  0  0  0  0  0  0  0  0  0  0
   20.1027   17.0135   22.0601 H   0  0  0  0  0  0  0  0  0  0  0  0
   18.9660   17.6869   23.2177 H   0  0  0  0  0  0  0  0  0  0  0  0
   20.9476   18.5768   23.3037 C   0  0  0  0  0  0  0  0  0  0  0  0
   21.3604   17.8243   23.9897 H   0  0  0  0  0  0  0  0  0  0  0  0
   21.7554   18.8443   22.6085 H   0  0  0  0  0  0  0  0  0  0  0  0
   20.5260   19.8210   24.1142 C   0  0  0  0  0  0  0  0  0  0  0  0
   19.7271   19.5741   24.8255 H   0  0  0  0  0  0  0  0  0  0  0  0
   21.3766   20.2169   24.6838 H   0  0  0  0  0  0  0  0  0  0  0  0
   20.1625   20.6193   23.4540 H   0  0  0  0  0  0  0  0  0  0  0  0
  1  2  1  0  0  0  0
  1  3  2  0  0  0  0
  1  4  1  0  0  0  0
  4  5  1  0  0  0  0
  4  6  2  0  0  0  0
  6  7  1  0  0  0  0
  6  8  1  0  0  0  0
  8  9  1  0  0  0  0
  8 10  1  0  0  0  0
  8 11  1  0  0  0  0
 11 12  1  0  0  0  0
 11 13  1  0  0  0  0
 11 14  1  0  0  0  0
 14 15  1  0  0  0  0
 14 16  1  0  0  0  0
 14 17  1  0  0  0  0
M  END
> <VConfSearch Rank>
935

> <Conf_Id>
3

> <Delta U+W>
0.531

> <U+W>
-52.878

> <U>
10.067

> <W>
-62.945

> <W(PB)>
-64.982

> <W(SA)>
2.037

> <Valence>
2.779

> <Coulomb>
6.474

> <VdW>
0.815

> <VdW6>
-5.088

> <VdW12>
5.902

> <Bond>
0.078

> <Angle>
2.651

> <Pdih>
0.050

> <Idih>
0.000

> <Tether>
0.000

$$$$
VeraChem MOL file


 17 16  0  0  0  0  0  0  0  0999 V2000     
   19.5802   16.5635   23.6670 C   0  0  0  0  0  0  0  0  0  0  0  0
   19.9089   16.3058   24.8086 O   0  5  0  0  0  0  0  0  0  0  0  0
   19.3417   15.7047   22.8386 O   0  0  0  0  0  0  0  0  0  0  0  0
   19.4686   17.9989   23.2912 C   0  0  0  0  0  0  0  0  0  0  0  0
   19.6955   18.7139   24.0787 H   0  0  0  0  0  0  0  0  0  0  0  0
   19.1158   18.4300   22.0586 C   0  0  0  0  0  0  0  0  0  0  0  0
   18.8905   17.7204   21.2629 H   0  0  0  0  0  0  0  0  0  0  0  0
   19.0058   19.8920   21.6784 C   0  0  0  0  0  0  0  0  0  0  0  0
   18.9437   20.5213   22.5766 H   0  0  0  0  0  0  0  0  0  0  0  0
   18.0678   20.0500   21.1296 H   0  0  0  0  0  0  0  0  0  0  0  0
   20.1857   20.3592   20.7982 C   0  0  0  0  0  0  0  0  0  0  0  0
   20.2502   19.7285   19.9006 H   0  0  0  0  0  0  0  0  0  0  0  0
   19.9895   21.3824   20.4493 H   0  0  0  0  0  0  0  0  0  0  0  0
   21.5338   20.3340   21.5498 C   0  0  0  0  0  0  0  0  0  0  0  0
   21.7959   19.3139   21.8590 H   0  0  0  0  0  0  0  0  0  0  0  0
   22.3411   20.7086   20.9072 H   0  0  0  0  0  0  0  0  0  0  0  0
   21.4945   20.9646   22.4475 H   0  0  0  0  0  0  0  0  0  0  0  0
  1  2  1  0  0  0  0
  1  3  2  0  0  0  0
  1  4  1  0  0  0  0
  4  5  1  0  0  0  0
  4  6  2  0  0  0  0
  6  7  1  0  0  0  0
  6  8  1  0  0  0  0
  8  9  1  0  0  0  0
  8 10  1  0  0  0  0
  8 11  1  0  0  0  0
 11 12  1  0  0  0  0
 11 13  1  0  0  0  0
 11 14  1  0  0  0  0
 14 15  1  0  0  0  0
 14 16  1  0  0  0  0
 14 17  1  0  0  0  0
M  END
> <VConfSearch Rank>
936

> <Conf_Id>
45

> <Delta U+W>
0.562

> <U+W>
-52.846

> <U>
10.243

> <W>
-63.089

> <W(PB)>
-65.116

> <W(SA)>
2.026

> <Valence>
2.822

> <Coulomb>
6.637

> <VdW>
0.785

> <VdW6>
-5.216

> <VdW12>
6.001

> <Bond>
0.080

> <Angle>
2.678

> <Pdih>
0.064

> <Idih>
0.000

> <Tether>
0.000

$$$$
VeraChem MOL file


 17 16  0  0  0  0  0  0  0  0999 V2000     
   18.1017   20.1083   19.3022 C   0  0  0  0  0  0  0  0  0  0  0  0
   16.8938   20.0743   19.1703 O   0  5  0  0  0  0  0  0  0  0  0  0
   18.8619   20.3156   18.3750 O   0  0  0  0  0  0  0  0  0  0  0  0
   18.6509   19.8853   20.6670 C   0  0  0  0  0  0  0  0  0  0  0  0
   17.9178   19.7059   21.4501 H   0  0  0  0  0  0  0  0  0  0  0  0
   19.9715   19.8943   20.9589 C   0  0  0  0  0  0  0  0  0  0  0  0
   20.7147   20.0707   20.1815 H   0  0  0  0  0  0  0  0  0  0  0  0
   20.5219   19.6644   22.3494 C   0  0  0  0  0  0  0  0  0  0  0  0
   19.8753   20.1485   23.0940 H   0  0  0  0  0  0  0  0  0  0  0  0
   21.5088   20.1384   22.4373 H   0  0  0  0  0  0  0  0  0  0  0  0
   20.6421   18.1593   22.6643 C   0  0  0  0  0  0  0  0  0  0  0  0
   19.6547   17.6844   22.5809 H   0  0  0  0  0  0  0  0  0  0  0  0
   21.2909   17.6778   21.9195 H   0  0  0  0  0  0  0  0  0  0  0  0
   21.2114   17.9165   24.0766 C   0  0  0  0  0  0  0  0  0  0  0  0
   22.2132   18.3543   24.1772 H   0  0  0  0  0  0  0  0  0  0  0  0
   20.5638   18.3620   24.8431 H   0  0  0  0  0  0  0  0  0  0  0  0
   21.2895   16.8410   24.2824 H   0  0  0  0  0  0  0  0  0  0  0  0
  1  2  1  0  0  0  0
  1  3  2  0  0  0  0
  1  4  1  0  0  0  0
  4  5  1  0  0  0  0
  4  6  2  0  0  0  0
  6  7  1  0  0  0  0
  6  8  1  0  0  0  0
  8  9  1  0  0  0  0
  8 10  1  0  0  0  0
  8 11  1  0  0  0  0
 11 12  1  0  0  0  0
 11 13  1  0  0  0  0
 11 14  1  0  0  0  0
 14 15  1  0  0  0  0
 14 16  1  0  0  0  0
 14 17  1  0  0  0  0
M  END
> <VConfSearch Rank>
937

> <Conf_Id>
36

> <Delta U+W>
0.000

> <U+W>
-53.409

> <U>
9.048

> <W>
-62.457

> <W(PB)>
-64.540

> <W(SA)>
2.084

> <Valence>
2.652

> <Coulomb>
5.578

> <VdW>
0.818

> <VdW6>
-4.534

> <VdW12>
5.352

> <Bond>
0.063

> <Angle>
2.579

> <Pdih>
0.010

> <Idih>
0.000

> <Tether>
0.000

$$$$
VeraChem MOL file


 17 16  0  0  0  0  0  0  0  0999 V2000     
   23.1061   18.4958   23.1220 C   0  0  0  0  0  0  0  0  0  0  0  0
   23.4330   17.3933   22.7244 O   0  5  0  0  0  0  0  0  0  0  0  0
   23.7336   19.1061   23.9654 O   0  0  0  0  0  0  0  0  0  0  0  0
   21.8892   19.1466   22.5655 C   0  0  0  0  0  0  0  0  0  0  0  0
   21.6532   20.1309   22.9636 H   0  0  0  0  0  0  0  0  0  0  0  0
   21.0969   18.5842   21.6247 C   0  0  0  0  0  0  0  0  0  0  0  0
   21.3228   17.5975   21.2206 H   0  0  0  0  0  0  0  0  0  0  0  0
   19.8599   19.2521   21.0653 C   0  0  0  0  0  0  0  0  0  0  0  0
   19.6485   18.8547   20.0635 H   0  0  0  0  0  0  0  0  0  0  0  0
   20.0375   20.3293   20.9431 H   0  0  0  0  0  0  0  0  0  0  0  0
   18.6377   19.0264   21.9787 C   0  0  0  0  0  0  0  0  0  0  0  0
   18.4608   17.9484   22.0976 H   0  0  0  0  0  0  0  0  0  0  0  0
   18.8461   19.4272   22.9804 H   0  0  0  0  0  0  0  0  0  0  0  0
   17.3704   19.6965   21.4107 C   0  0  0  0  0  0  0  0  0  0  0  0
   17.1210   19.2906   20.4215 H   0  0  0  0  0  0  0  0  0  0  0  0
   16.5122   19.5251   22.0735 H   0  0  0  0  0  0  0  0  0  0  0  0
   17.5105   20.7809   21.3111 H   0  0  0  0  0  0  0  0  0  0  0  0
  1  2  1  0  0  0  0
  1  3  2  0  0  0  0
  1  4  1  0  0  0  0
  4  5  1  0  0  0  0
  4  6  2  0  0  0  0
  6  7  1  0  0  0  0
  6  8  1  0  0  0  0
  8  9  1  0  0  0  0
  8 10  1  0  0  0  0
  8 11  1  0  0  0  0
 11 12  1  0  0  0  0
 11 13  1  0  0  0  0
 11 14  1  0  0  0  0
 14 15  1  0  0  0  0
 14 16  1  0  0  0  0
 14 17  1  0  0  0  0
M  END
> <VConfSearch Rank>
938

> <Conf_Id>
1

> <Delta U+W>
0.030

> <U+W>
-53.378

> <U>
9.048

> <W>
-62.426

> <W(PB)>
-64.506

> <W(SA)>
2.080

> <Valence>
2.652

> <Coulomb>
5.578

> <VdW>
0.818

> <VdW6>
-4.535

> <VdW12>
5.352

> <Bond>
0.063

> <Angle>
2.579

> <Pdih>
0.010

> <Idih>
0.000

> <Tether>
0.000

$$$$
VeraChem MOL file


 17 16  0  0  0  0  0  0  0  0999 V2000     
   19.7621   22.0584   22.8323 C   0  0  0  0  0  0  0  0  0  0  0  0
   19.8628   22.5821   21.7387 O   0  5  0  0  0  0  0  0  0  0  0  0
   19.3403   22.6463   23.8091 O   0  0  0  0  0  0  0  0  0  0  0  0
   20.1700   20.6382   23.0078 C   0  0  0  0  0  0  0  0  0  0  0  0
   20.0555   20.2318   24.0101 H   0  0  0  0  0  0  0  0  0  0  0  0
   20.6543   19.8644   22.0100 C   0  0  0  0  0  0  0  0  0  0  0  0
   20.7700   20.2604   21.0014 H   0  0  0  0  0  0  0  0  0  0  0  0
   21.0638   18.4183   22.1954 C   0  0  0  0  0  0  0  0  0  0  0  0
   21.5932   18.3051   23.1511 H   0  0  0  0  0  0  0  0  0  0  0  0
   21.7789   18.1301   21.4132 H   0  0  0  0  0  0  0  0  0  0  0  0
   19.8549   17.4573   22.1694 C   0  0  0  0  0  0  0  0  0  0  0  0
   20.1978   16.4422   22.4128 H   0  0  0  0  0  0  0  0  0  0  0  0
   19.1381   17.7425   22.9519 H   0  0  0  0  0  0  0  0  0  0  0  0
   19.1463   17.4352   20.7982 C   0  0  0  0  0  0  0  0  0  0  0  0
   19.8415   17.1401   20.0016 H   0  0  0  0  0  0  0  0  0  0  0  0
   18.3148   16.7187   20.8051 H   0  0  0  0  0  0  0  0  0  0  0  0
   18.7372   18.4228   20.5479 H   0  0  0  0  0  0  0  0  0  0  0  0
  1  2  1  0  0  0  0
  1  3  2  0  0  0  0
  1  4  1  0  0  0  0
  4  5  1  0  0  0  0
  4  6  2  0  0  0  0
  6  7  1  0  0  0  0
  6  8  1  0  0  0  0
  8  9  1  0  0  0  0
  8 10  1  0  0  0  0
  8 11  1  0  0  0  0
 11 12  1  0  0  0  0
 11 13  1  0  0  0  0
 11 14  1  0  0  0  0
 14 15  1  0  0  0  0
 14 16  1  0  0  0  0
 14 17  1  0  0  0  0
M  END
> <VConfSearch Rank>
939

> <Conf_Id>
3

> <Delta U+W>
0.531

> <U+W>
-52.878

> <U>
10.067

> <W>
-62.945

> <W(PB)>
-64.982

> <W(SA)>
2.037

> <Valence>
2.779

> <Coulomb>
6.474

> <VdW>
0.815

> <VdW6>
-5.088

> <VdW12>
5.902

> <Bond>
0.078

> <Angle>
2.651

> <Pdih>
0.050

> <Idih>
0.000

> <Tether>
0.000

$$$$
VeraChem MOL file


 17 16  0  0  0  0  0  0  0  0999 V2000     
   21.8554   16.7353   22.0763 C   0  0  0  0  0  0  0  0  0  0  0  0
   21.7670   15.6758   21.4868 O   0  5  0  0  0  0  0  0  0  0  0  0
   22.5552   16.8872   23.0600 O   0  0  0  0  0  0  0  0  0  0  0  0
   21.0664   17.8822   21.5508 C   0  0  0  0  0  0  0  0  0  0  0  0
   20.4627   17.6779   20.6696 H   0  0  0  0  0  0  0  0  0  0  0  0
   21.0674   19.1152   22.1068 C   0  0  0  0  0  0  0  0  0  0  0  0
   21.6666   19.3275   22.9920 H   0  0  0  0  0  0  0  0  0  0  0  0
   20.2609   20.2801   21.5712 C   0  0  0  0  0  0  0  0  0  0  0  0
   19.9403   20.0858   20.5386 H   0  0  0  0  0  0  0  0  0  0  0  0
   20.9021   21.1707   21.5292 H   0  0  0  0  0  0  0  0  0  0  0  0
   19.0279   20.5916   22.4475 C   0  0  0  0  0  0  0  0  0  0  0  0
   19.3476   20.7835   23.4812 H   0  0  0  0  0  0  0  0  0  0  0  0
   18.5570   21.5168   22.0878 H   0  0  0  0  0  0  0  0  0  0  0  0
   17.9833   19.4553   22.4283 C   0  0  0  0  0  0  0  0  0  0  0  0
   18.3995   18.5276   22.8422 H   0  0  0  0  0  0  0  0  0  0  0  0
   17.1058   19.7275   23.0289 H   0  0  0  0  0  0  0  0  0  0  0  0
   17.6437   19.2515   21.4045 H   0  0  0  0  0  0  0  0  0  0  0  0
  1  2  1  0  0  0  0
  1  3  2  0  0  0  0
  1  4  1  0  0  0  0
  4  5  1  0  0  0  0
  4  6  2  0  0  0  0
  6  7  1  0  0  0  0
  6  8  1  0  0  0  0
  8  9  1  0  0  0  0
  8 10  1  0  0  0  0
  8 11  1  0  0  0  0
 11 12  1  0  0  0  0
 11 13  1  0  0  0  0
 11 14  1  0  0  0  0
 14 15  1  0  0  0  0
 14 16  1  0  0  0  0
 14 17  1  0  0  0  0
M  END
> <VConfSearch Rank>
940

> <Conf_Id>
45

> <Delta U+W>
0.562

> <U+W>
-52.846

> <U>
10.243

> <W>
-63.089

> <W(PB)>
-65.116

> <W(SA)>
2.026

> <Valence>
2.822

> <Coulomb>
6.637

> <VdW>
0.785

> <VdW6>
-5.216

> <VdW12>
6.001

> <Bond>
0.080

> <Angle>
2.678

> <Pdih>
0.064

> <Idih>
0.000

> <Tether>
0.000

$$$$
VeraChem MOL file


 17 16  0  0  0  0  0  0  0  0999 V2000     
   19.6101   21.2885   24.4667 C   0  0  0  0  0  0  0  0  0  0  0  0
   18.6806   21.4097   25.2407 O   0  5  0  0  0  0  0  0  0  0  0  0
   20.4915   22.1202   24.3574 O   0  0  0  0  0  0  0  0  0  0  0  0
   19.6506   20.0602   23.6279 C   0  0  0  0  0  0  0  0  0  0  0  0
   18.8331   19.3580   23.7748 H   0  0  0  0  0  0  0  0  0  0  0  0
   20.6227   19.7953   22.7256 C   0  0  0  0  0  0  0  0  0  0  0  0
   21.4450   20.4931   22.5687 H   0  0  0  0  0  0  0  0  0  0  0  0
   20.6553   18.5445   21.8749 C   0  0  0  0  0  0  0  0  0  0  0  0
   20.3158   17.6812   22.4632 H   0  0  0  0  0  0  0  0  0  0  0  0
   21.6899   18.3307   21.5748 H   0  0  0  0  0  0  0  0  0  0  0  0
   19.7743   18.6968   20.6180 C   0  0  0  0  0  0  0  0  0  0  0  0
   18.7378   18.9066   20.9167 H   0  0  0  0  0  0  0  0  0  0  0  0
   20.1170   19.5596   20.0302 H   0  0  0  0  0  0  0  0  0  0  0  0
   19.8095   17.4294   19.7405 C   0  0  0  0  0  0  0  0  0  0  0  0
   20.8314   17.2144   19.4014 H   0  0  0  0  0  0  0  0  0  0  0  0
   19.4418   16.5566   20.2960 H   0  0  0  0  0  0  0  0  0  0  0  0
   19.1774   17.5564   18.8521 H   0  0  0  0  0  0  0  0  0  0  0  0
  1  2  1  0  0  0  0
  1  3  2  0  0  0  0
  1  4  1  0  0  0  0
  4  5  1  0  0  0  0
  4  6  2  0  0  0  0
  6  7  1  0  0  0  0
  6  8  1  0  0  0  0
  8  9  1  0  0  0  0
  8 10  1  0  0  0  0
  8 11  1  0  0  0  0
 11 12  1  0  0  0  0
 11 13  1  0  0  0  0
 11 14  1  0  0  0  0
 14 15  1  0  0  0  0
 14 16  1  0  0  0  0
 14 17  1  0  0  0  0
M  END
> <VConfSearch Rank>
941

> <Conf_Id>
36

> <Delta U+W>
0.000

> <U+W>
-53.409

> <U>
9.048

> <W>
-62.457

> <W(PB)>
-64.540

> <W(SA)>
2.084

> <Valence>
2.652

> <Coulomb>
5.578

> <VdW>
0.818

> <VdW6>
-4.534

> <VdW12>
5.352

> <Bond>
0.063

> <Angle>
2.579

> <Pdih>
0.010

> <Idih>
0.000

> <Tether>
0.000

$$$$
VeraChem MOL file


 17 16  0  0  0  0  0  0  0  0999 V2000     
   17.0373   18.9847   20.3310 C   0  0  0  0  0  0  0  0  0  0  0  0
   17.2293   18.4498   19.2551 O   0  5  0  0  0  0  0  0  0  0  0  0
   15.9945   19.5413   20.6147 O   0  0  0  0  0  0  0  0  0  0  0  0
   18.1106   18.9686   21.3616 C   0  0  0  0  0  0  0  0  0  0  0  0
   17.8743   19.4641   22.3006 H   0  0  0  0  0  0  0  0  0  0  0  0
   19.3188   18.3880   21.1826 C   0  0  0  0  0  0  0  0  0  0  0  0
   19.5668   17.8908   20.2450 H   0  0  0  0  0  0  0  0  0  0  0  0
   20.4056   18.3778   22.2353 C   0  0  0  0  0  0  0  0  0  0  0  0
   21.0731   17.5220   22.0665 H   0  0  0  0  0  0  0  0  0  0  0  0
   19.9628   18.2373   23.2308 H   0  0  0  0  0  0  0  0  0  0  0  0
   21.2249   19.6843   22.2097 C   0  0  0  0  0  0  0  0  0  0  0  0
   21.6685   19.8216   21.2138 H   0  0  0  0  0  0  0  0  0  0  0  0
   20.5591   20.5413   22.3825 H   0  0  0  0  0  0  0  0  0  0  0  0
   22.3408   19.6780   23.2739 C   0  0  0  0  0  0  0  0  0  0  0  0
   23.0398   18.8483   23.1054 H   0  0  0  0  0  0  0  0  0  0  0  0
   22.9124   20.6147   23.2405 H   0  0  0  0  0  0  0  0  0  0  0  0
   21.9208   19.5731   24.2828 H   0  0  0  0  0  0  0  0  0  0  0  0
  1  2  1  0  0  0  0
  1  3  2  0  0  0  0
  1  4  1  0  0  0  0
  4  5  1  0  0  0  0
  4  6  2  0  0  0  0
  6  7  1  0  0  0  0
  6  8  1  0  0  0  0
  8  9  1  0  0  0  0
  8 10  1  0  0  0  0
  8 11  1  0  0  0  0
 11 12  1  0  0  0  0
 11 13  1  0  0  0  0
 11 14  1  0  0  0  0
 14 15  1  0  0  0  0
 14 16  1  0  0  0  0
 14 17  1  0  0  0  0
M  END
> <VConfSearch Rank>
942

> <Conf_Id>
1

> <Delta U+W>
0.030

> <U+W>
-53.378

> <U>
9.048

> <W>
-62.426

> <W(PB)>
-64.506

> <W(SA)>
2.080

> <Valence>
2.652

> <Coulomb>
5.578

> <VdW>
0.818

> <VdW6>
-4.535

> <VdW12>
5.352

> <Bond>
0.063

> <Angle>
2.579

> <Pdih>
0.010

> <Idih>
0.000

> <Tether>
0.000

$$$$
VeraChem MOL file


 17 16  0  0  0  0  0  0  0  0999 V2000     
   17.4488   20.5851   22.8658 C   0  0  0  0  0  0  0  0  0  0  0  0
   16.6955   20.2263   21.9803 O   0  5  0  0  0  0  0  0  0  0  0  0
   17.0592   21.1058   23.8929 O   0  0  0  0  0  0  0  0  0  0  0  0
   18.9156   20.3921   22.7066 C   0  0  0  0  0  0  0  0  0  0  0  0
   19.5322   20.7355   23.5341 H   0  0  0  0  0  0  0  0  0  0  0  0
   19.4877   19.8267   21.6194 C   0  0  0  0  0  0  0  0  0  0  0  0
   18.8791   19.4761   20.7861 H   0  0  0  0  0  0  0  0  0  0  0  0
   20.9813   19.6300   21.4661 C   0  0  0  0  0  0  0  0  0  0  0  0
   21.5101   20.5152   21.8446 H   0  0  0  0  0  0  0  0  0  0  0  0
   21.2397   19.5510   20.4015 H   0  0  0  0  0  0  0  0  0  0  0  0
   21.4891   18.3782   22.2149 C   0  0  0  0  0  0  0  0  0  0  0  0
   22.5858   18.3455   22.1572 H   0  0  0  0  0  0  0  0  0  0  0  0
   21.2331   18.4550   23.2808 H   0  0  0  0  0  0  0  0  0  0  0  0
   20.9140   17.0683   21.6351 C   0  0  0  0  0  0  0  0  0  0  0  0
   21.1687   16.9642   20.5724 H   0  0  0  0  0  0  0  0  0  0  0  0
   21.3209   16.1992   22.1679 H   0  0  0  0  0  0  0  0  0  0  0  0
   19.8207   17.0395   21.7302 H   0  0  0  0  0  0  0  0  0  0  0  0
  1  2  1  0  0  0  0
  1  3  2  0  0  0  0
  1  4  1  0  0  0  0
  4  5  1  0  0  0  0
  4  6  2  0  0  0  0
  6  7  1  0  0  0  0
  6  8  1  0  0  0  0
  8  9  1  0  0  0  0
  8 10  1  0  0  0  0
  8 11  1  0  0  0  0
 11 12  1  0  0  0  0
 11 13  1  0  0  0  0
 11 14  1  0  0  0  0
 14 15  1  0  0  0  0
 14 16  1  0  0  0  0
 14 17  1  0  0  0  0
M  END
> <VConfSearch Rank>
943

> <Conf_Id>
3

> <Delta U+W>
0.531

> <U+W>
-52.878

> <U>
10.067

> <W>
-62.945

> <W(PB)>
-64.982

> <W(SA)>
2.037

> <Valence>
2.779

> <Coulomb>
6.474

> <VdW>
0.815

> <VdW6>
-5.088

> <VdW12>
5.902

> <Bond>
0.078

> <Angle>
2.651

> <Pdih>
0.050

> <Idih>
0.000

> <Tether>
0.000

$$$$
VeraChem MOL file


 17 16  0  0  0  0  0  0  0  0999 V2000     
   20.0313   22.1114   21.8673 C   0  0  0  0  0  0  0  0  0  0  0  0
   20.9820   22.8674   21.8185 O   0  5  0  0  0  0  0  0  0  0  0  0
   18.9176   22.4717   22.1993 O   0  0  0  0  0  0  0  0  0  0  0  0
   20.2644   20.6892   21.4973 C   0  0  0  0  0  0  0  0  0  0  0  0
   21.2821   20.4348   21.2105 H   0  0  0  0  0  0  0  0  0  0  0  0
   19.3008   19.7400   21.5085 C   0  0  0  0  0  0  0  0  0  0  0  0
   18.2793   19.9855   21.7980 H   0  0  0  0  0  0  0  0  0  0  0  0
   19.5418   18.2922   21.1338 C   0  0  0  0  0  0  0  0  0  0  0  0
   20.4817   18.1891   20.5746 H   0  0  0  0  0  0  0  0  0  0  0  0
   18.7448   17.9603   20.4551 H   0  0  0  0  0  0  0  0  0  0  0  0
   19.5676   17.3639   22.3678 C   0  0  0  0  0  0  0  0  0  0  0  0
   18.6288   17.4685   22.9292 H   0  0  0  0  0  0  0  0  0  0  0  0
   19.6165   16.3196   22.0298 H   0  0  0  0  0  0  0  0  0  0  0  0
   20.7653   17.6475   23.2994 C   0  0  0  0  0  0  0  0  0  0  0  0
   20.7161   18.6646   23.7095 H   0  0  0  0  0  0  0  0  0  0  0  0
   20.7733   16.9450   24.1427 H   0  0  0  0  0  0  0  0  0  0  0  0
   21.7157   17.5412   22.7603 H   0  0  0  0  0  0  0  0  0  0  0  0
  1  2  1  0  0  0  0
  1  3  2  0  0  0  0
  1  4  1  0  0  0  0
  4  5  1  0  0  0  0
  4  6  2  0  0  0  0
  6  7  1  0  0  0  0
  6  8  1  0  0  0  0
  8  9  1  0  0  0  0
  8 10  1  0  0  0  0
  8 11  1  0  0  0  0
 11 12  1  0  0  0  0
 11 13  1  0  0  0  0
 11 14  1  0  0  0  0
 14 15  1  0  0  0  0
 14 16  1  0  0  0  0
 14 17  1  0  0  0  0
M  END
> <VConfSearch Rank>
944

> <Conf_Id>
45

> <Delta U+W>
0.562

> <U+W>
-52.846

> <U>
10.243

> <W>
-63.089

> <W(PB)>
-65.116

> <W(SA)>
2.026

> <Valence>
2.822

> <Coulomb>
6.637

> <VdW>
0.785

> <VdW6>
-5.216

> <VdW12>
6.001

> <Bond>
0.080

> <Angle>
2.678

> <Pdih>
0.064

> <Idih>
0.000

> <Tether>
0.000

$$$$
VeraChem MOL file


 17 16  0  0  0  0  0  0  0  0999 V2000     
   18.9531   16.7692   19.7270 C   0  0  0  0  0  0  0  0  0  0  0  0
   18.8769   15.5645   19.8703 O   0  5  0  0  0  0  0  0  0  0  0  0
   18.8656   17.3123   18.6417 O   0  0  0  0  0  0  0  0  0  0  0  0
   19.1613   17.5949   20.9473 C   0  0  0  0  0  0  0  0  0  0  0  0
   19.2308   17.0475   21.8845 H   0  0  0  0  0  0  0  0  0  0  0  0
   19.2655   18.9433   20.9362 C   0  0  0  0  0  0  0  0  0  0  0  0
   19.1997   19.5015   20.0025 H   0  0  0  0  0  0  0  0  0  0  0  0
   19.4794   19.7754   22.1817 C   0  0  0  0  0  0  0  0  0  0  0  0
   18.8995   19.3582   23.0162 H   0  0  0  0  0  0  0  0  0  0  0  0
   19.0992   20.7922   22.0144 H   0  0  0  0  0  0  0  0  0  0  0  0
   20.9719   19.8391   22.5654 C   0  0  0  0  0  0  0  0  0  0  0  0
   21.3529   18.8228   22.7372 H   0  0  0  0  0  0  0  0  0  0  0  0
   21.5495   20.2585   21.7299 H   0  0  0  0  0  0  0  0  0  0  0  0
   21.1995   20.6934   23.8287 C   0  0  0  0  0  0  0  0  0  0  0  0
   20.8560   21.7245   23.6730 H   0  0  0  0  0  0  0  0  0  0  0  0
   20.6567   20.2770   24.6875 H   0  0  0  0  0  0  0  0  0  0  0  0
   22.2662   20.7269   24.0860 H   0  0  0  0  0  0  0  0  0  0  0  0
  1  2  1  0  0  0  0
  1  3  2  0  0  0  0
  1  4  1  0  0  0  0
  4  5  1  0  0  0  0
  4  6  2  0  0  0  0
  6  7  1  0  0  0  0
  6  8  1  0  0  0  0
  8  9  1  0  0  0  0
  8 10  1  0  0  0  0
  8 11  1  0  0  0  0
 11 12  1  0  0  0  0
 11 13  1  0  0  0  0
 11 14  1  0  0  0  0
 14 15  1  0  0  0  0
 14 16  1  0  0  0  0
 14 17  1  0  0  0  0
M  END
> <VConfSearch Rank>
945

> <Conf_Id>
36

> <Delta U+W>
0.000

> <U+W>
-53.409

> <U>
9.048

> <W>
-62.457

> <W(PB)>
-64.540

> <W(SA)>
2.084

> <Valence>
2.652

> <Coulomb>
5.578

> <VdW>
0.818

> <VdW6>
-4.534

> <VdW12>
5.352

> <Bond>
0.063

> <Angle>
2.579

> <Pdih>
0.010

> <Idih>
0.000

> <Tether>
0.000

$$$$
VeraChem MOL file


 17 16  0  0  0  0  0  0  0  0999 V2000     
   21.9184   16.7620   20.3918 C   0  0  0  0  0  0  0  0  0  0  0  0
   22.1764   15.9167   21.2281 O   0  5  0  0  0  0  0  0  0  0  0  0
   22.4599   16.8012   19.3042 O   0  0  0  0  0  0  0  0  0  0  0  0
   20.8979   17.8030   20.6897 C   0  0  0  0  0  0  0  0  0  0  0  0
   20.7148   18.5280   19.8999 H   0  0  0  0  0  0  0  0  0  0  0  0
   20.2190   17.8808   21.8568 C   0  0  0  0  0  0  0  0  0  0  0  0
   20.3961   17.1610   22.6557 H   0  0  0  0  0  0  0  0  0  0  0  0
   19.1839   18.9440   22.1525 C   0  0  0  0  0  0  0  0  0  0  0  0
   18.4821   18.5731   22.9117 H   0  0  0  0  0  0  0  0  0  0  0  0
   18.5896   19.1504   21.2519 H   0  0  0  0  0  0  0  0  0  0  0  0
   19.8427   20.2465   22.6512 C   0  0  0  0  0  0  0  0  0  0  0  0
   20.4347   20.0379   23.5532 H   0  0  0  0  0  0  0  0  0  0  0  0
   20.5422   20.6212   21.8909 H   0  0  0  0  0  0  0  0  0  0  0  0
   18.7935   21.3323   22.9636 C   0  0  0  0  0  0  0  0  0  0  0  0
   18.0996   20.9951   23.7447 H   0  0  0  0  0  0  0  0  0  0  0  0
   19.2807   22.2506   23.3167 H   0  0  0  0  0  0  0  0  0  0  0  0
   18.2080   21.5819   22.0690 H   0  0  0  0  0  0  0  0  0  0  0  0
  1  2  1  0  0  0  0
  1  3  2  0  0  0  0
  1  4  1  0  0  0  0
  4  5  1  0  0  0  0
  4  6  2  0  0  0  0
  6  7  1  0  0  0  0
  6  8  1  0  0  0  0
  8  9  1  0  0  0  0
  8 10  1  0  0  0  0
  8 11  1  0  0  0  0
 11 12  1  0  0  0  0
 11 13  1  0  0  0  0
 11 14  1  0  0  0  0
 14 15  1  0  0  0  0
 14 16  1  0  0  0  0
 14 17  1  0  0  0  0
M  END
> <VConfSearch Rank>
946

> <Conf_Id>
1

> <Delta U+W>
0.030

> <U+W>
-53.378

> <U>
9.048

> <W>
-62.426

> <W(PB)>
-64.506

> <W(SA)>
2.080

> <Valence>
2.652

> <Coulomb>
5.578

> <VdW>
0.818

> <VdW6>
-4.535

> <VdW12>
5.352

> <Bond>
0.063

> <Angle>
2.579

> <Pdih>
0.010

> <Idih>
0.000

> <Tether>
0.000

$$$$
VeraChem MOL file


 17 16  0  0  0  0  0  0  0  0999 V2000     
   21.4571   16.3727   22.2805 C   0  0  0  0  0  0  0  0  0  0  0  0
   21.0084   15.9758   23.3396 O   0  5  0  0  0  0  0  0  0  0  0  0
   22.0291   15.6453   21.4921 O   0  0  0  0  0  0  0  0  0  0  0  0
   21.3151   17.8077   21.9132 C   0  0  0  0  0  0  0  0  0  0  0  0
   21.7387   18.0964   20.9541 H   0  0  0  0  0  0  0  0  0  0  0  0
   20.7020   18.7278   22.6920 C   0  0  0  0  0  0  0  0  0  0  0  0
   20.2711   18.4487   23.6533 H   0  0  0  0  0  0  0  0  0  0  0  0
   20.5578   20.1859   22.3098 C   0  0  0  0  0  0  0  0  0  0  0  0
   21.4878   20.5380   21.8431 H   0  0  0  0  0  0  0  0  0  0  0  0
   20.4182   20.7960   23.2124 H   0  0  0  0  0  0  0  0  0  0  0  0
   19.3816   20.4251   21.3378 C   0  0  0  0  0  0  0  0  0  0  0  0
   19.3906   21.4751   21.0144 H   0  0  0  0  0  0  0  0  0  0  0  0
   19.5191   19.8169   20.4330 H   0  0  0  0  0  0  0  0  0  0  0  0
   18.0128   20.1056   21.9758 C   0  0  0  0  0  0  0  0  0  0  0  0
   17.8480   20.7119   22.8760 H   0  0  0  0  0  0  0  0  0  0  0  0
   17.1992   20.3182   21.2704 H   0  0  0  0  0  0  0  0  0  0  0  0
   17.9449   19.0469   22.2583 H   0  0  0  0  0  0  0  0  0  0  0  0
  1  2  1  0  0  0  0
  1  3  2  0  0  0  0
  1  4  1  0  0  0  0
  4  5  1  0  0  0  0
  4  6  2  0  0  0  0
  6  7  1  0  0  0  0
  6  8  1  0  0  0  0
  8  9  1  0  0  0  0
  8 10  1  0  0  0  0
  8 11  1  0  0  0  0
 11 12  1  0  0  0  0
 11 13  1  0  0  0  0
 11 14  1  0  0  0  0
 14 15  1  0  0  0  0
 14 16  1  0  0  0  0
 14 17  1  0  0  0  0
M  END
> <VConfSearch Rank>
947

> <Conf_Id>
3

> <Delta U+W>
0.531

> <U+W>
-52.878

> <U>
10.067

> <W>
-62.945

> <W(PB)>
-64.982

> <W(SA)>
2.037

> <Valence>
2.779

> <Coulomb>
6.474

> <VdW>
0.815

> <VdW6>
-5.088

> <VdW12>
5.902

> <Bond>
0.078

> <Angle>
2.651

> <Pdih>
0.050

> <Idih>
0.000

> <Tether>
0.000

$$$$
VeraChem MOL file


 17 16  0  0  0  0  0  0  0  0999 V2000     
   22.6586   17.7739   22.4891 C   0  0  0  0  0  0  0  0  0  0  0  0
   23.6786   18.2238   22.9738 O   0  5  0  0  0  0  0  0  0  0  0  0
   22.6485   16.8043   21.7541 O   0  0  0  0  0  0  0  0  0  0  0  0
   21.3789   18.4540   22.8269 C   0  0  0  0  0  0  0  0  0  0  0  0
   21.4593   19.3134   23.4884 H   0  0  0  0  0  0  0  0  0  0  0  0
   20.1716   18.0637   22.3584 C   0  0  0  0  0  0  0  0  0  0  0  0
   20.0825   17.2059   21.6922 H   0  0  0  0  0  0  0  0  0  0  0  0
   18.8709   18.7598   22.7019 C   0  0  0  0  0  0  0  0  0  0  0  0
   18.9953   19.3952   23.5893 H   0  0  0  0  0  0  0  0  0  0  0  0
   18.1202   18.0045   22.9702 H   0  0  0  0  0  0  0  0  0  0  0  0
   18.3318   19.6069   21.5285 C   0  0  0  0  0  0  0  0  0  0  0  0
   18.2095   18.9726   20.6396 H   0  0  0  0  0  0  0  0  0  0  0  0
   17.3316   19.9815   21.7867 H   0  0  0  0  0  0  0  0  0  0  0  0
   19.2457   20.8044   21.1914 C   0  0  0  0  0  0  0  0  0  0  0  0
   20.2379   20.4662   20.8658 H   0  0  0  0  0  0  0  0  0  0  0  0
   18.8123   21.4047   20.3810 H   0  0  0  0  0  0  0  0  0  0  0  0
   19.3758   21.4569   22.0646 H   0  0  0  0  0  0  0  0  0  0  0  0
  1  2  1  0  0  0  0
  1  3  2  0  0  0  0
  1  4  1  0  0  0  0
  4  5  1  0  0  0  0
  4  6  2  0  0  0  0
  6  7  1  0  0  0  0
  6  8  1  0  0  0  0
  8  9  1  0  0  0  0
  8 10  1  0  0  0  0
  8 11  1  0  0  0  0
 11 12  1  0  0  0  0
 11 13  1  0  0  0  0
 11 14  1  0  0  0  0
 14 15  1  0  0  0  0
 14 16  1  0  0  0  0
 14 17  1  0  0  0  0
M  END
> <VConfSearch Rank>
948

> <Conf_Id>
45

> <Delta U+W>
0.562

> <U+W>
-52.846

> <U>
10.243

> <W>
-63.089

> <W(PB)>
-65.116

> <W(SA)>
2.026

> <Valence>
2.822

> <Coulomb>
6.637

> <VdW>
0.785

> <VdW6>
-5.216

> <VdW12>
6.001

> <Bond>
0.080

> <Angle>
2.678

> <Pdih>
0.064

> <Idih>
0.000

> <Tether>
0.000

$$$$
VeraChem MOL file


 17 16  0  0  0  0  0  0  0  0999 V2000     
   21.5796   18.1163   19.1102 C   0  0  0  0  0  0  0  0  0  0  0  0
   21.4204   18.4846   17.9627 O   0  5  0  0  0  0  0  0  0  0  0  0
   22.2185   17.1230   19.4026 O   0  0  0  0  0  0  0  0  0  0  0  0
   20.9576   18.9334   20.1871 C   0  0  0  0  0  0  0  0  0  0  0  0
   20.4007   19.8077   19.8579 H   0  0  0  0  0  0  0  0  0  0  0  0
   21.0520   18.6418   21.5044 C   0  0  0  0  0  0  0  0  0  0  0  0
   21.6055   17.7670   21.8451 H   0  0  0  0  0  0  0  0  0  0  0  0
   20.4144   19.4769   22.5932 C   0  0  0  0  0  0  0  0  0  0  0  0
   20.4945   20.5437   22.3437 H   0  0  0  0  0  0  0  0  0  0  0  0
   20.9621   19.3341   23.5344 H   0  0  0  0  0  0  0  0  0  0  0  0
   18.9327   19.0995   22.7958 C   0  0  0  0  0  0  0  0  0  0  0  0
   18.3824   19.2458   21.8560 H   0  0  0  0  0  0  0  0  0  0  0  0
   18.8554   18.0325   23.0472 H   0  0  0  0  0  0  0  0  0  0  0  0
   18.2781   19.9398   23.9107 C   0  0  0  0  0  0  0  0  0  0  0  0
   18.7901   19.7874   24.8698 H   0  0  0  0  0  0  0  0  0  0  0  0
   18.3146   21.0101   23.6687 H   0  0  0  0  0  0  0  0  0  0  0  0
   17.2251   19.6575   24.0401 H   0  0  0  0  0  0  0  0  0  0  0  0
  1  2  1  0  0  0  0
  1  3  2  0  0  0  0
  1  4  1  0  0  0  0
  4  5  1  0  0  0  0
  4  6  2  0  0  0  0
  6  7  1  0  0  0  0
  6  8  1  0  0  0  0
  8  9  1  0  0  0  0
  8 10  1  0  0  0  0
  8 11  1  0  0  0  0
 11 12  1  0  0  0  0
 11 13  1  0  0  0  0
 11 14  1  0  0  0  0
 14 15  1  0  0  0  0
 14 16  1  0  0  0  0
 14 17  1  0  0  0  0
M  END
> <VConfSearch Rank>
949

> <Conf_Id>
36

> <Delta U+W>
0.000

> <U+W>
-53.409

> <U>
9.048

> <W>
-62.457

> <W(PB)>
-64.540

> <W(SA)>
2.084

> <Valence>
2.652

> <Coulomb>
5.578

> <VdW>
0.818

> <VdW6>
-4.534

> <VdW12>
5.352

> <Bond>
0.063

> <Angle>
2.579

> <Pdih>
0.010

> <Idih>
0.000

> <Tether>
0.000

$$$$
VeraChem MOL file


 17 16  0  0  0  0  0  0  0  0999 V2000     
   17.1391   19.2415   20.1557 C   0  0  0  0  0  0  0  0  0  0  0  0
   17.4455   19.4382   18.9948 O   0  5  0  0  0  0  0  0  0  0  0  0
   15.9944   19.3160   20.5580 O   0  0  0  0  0  0  0  0  0  0  0  0
   18.1941   18.8915   21.1450 C   0  0  0  0  0  0  0  0  0  0  0  0
   17.8531   18.7286   22.1649 H   0  0  0  0  0  0  0  0  0  0  0  0
   19.5062   18.7753   20.8384 C   0  0  0  0  0  0  0  0  0  0  0  0
   19.8590   18.9386   19.8202 H   0  0  0  0  0  0  0  0  0  0  0  0
   20.5731   18.4208   21.8510 C   0  0  0  0  0  0  0  0  0  0  0  0
   21.4290   17.9617   21.3381 H   0  0  0  0  0  0  0  0  0  0  0  0
   20.1892   17.6683   22.5532 H   0  0  0  0  0  0  0  0  0  0  0  0
   21.0451   19.6661   22.6292 C   0  0  0  0  0  0  0  0  0  0  0  0
   21.4307   20.4163   21.9249 H   0  0  0  0  0  0  0  0  0  0  0  0
   20.1907   20.1243   23.1463 H   0  0  0  0  0  0  0  0  0  0  0  0
   22.1394   19.3146   23.6571 C   0  0  0  0  0  0  0  0  0  0  0  0
   23.0194   18.8831   23.1622 H   0  0  0  0  0  0  0  0  0  0  0  0
   22.4624   20.2123   24.2003 H   0  0  0  0  0  0  0  0  0  0  0  0
   21.7690   18.5884   24.3925 H   0  0  0  0  0  0  0  0  0  0  0  0
  1  2  1  0  0  0  0
  1  3  2  0  0  0  0
  1  4  1  0  0  0  0
  4  5  1  0  0  0  0
  4  6  2  0  0  0  0
  6  7  1  0  0  0  0
  6  8  1  0  0  0  0
  8  9  1  0  0  0  0
  8 10  1  0  0  0  0
  8 11  1  0  0  0  0
 11 12  1  0  0  0  0
 11 13  1  0  0  0  0
 11 14  1  0  0  0  0
 14 15  1  0  0  0  0
 14 16  1  0  0  0  0
 14 17  1  0  0  0  0
M  END
> <VConfSearch Rank>
950

> <Conf_Id>
1

> <Delta U+W>
0.030

> <U+W>
-53.378

> <U>
9.048

> <W>
-62.426

> <W(PB)>
-64.506

> <W(SA)>
2.080

> <Valence>
2.652

> <Coulomb>
5.578

> <VdW>
0.818

> <VdW6>
-4.535

> <VdW12>
5.352

> <Bond>
0.063

> <Angle>
2.579

> <Pdih>
0.010

> <Idih>
0.000

> <Tether>
0.000

$$$$
VeraChem MOL file


 17 16  0  0  0  0  0  0  0  0999 V2000     
   22.3298   17.1952   21.2974 C   0  0  0  0  0  0  0  0  0  0  0  0
   21.9852   16.1850   21.8815 O   0  5  0  0  0  0  0  0  0  0  0  0
   23.1810   17.1978   20.4295 O   0  0  0  0  0  0  0  0  0  0  0  0
   21.6991   18.4973   21.6454 C   0  0  0  0  0  0  0  0  0  0  0  0
   22.0532   19.3606   21.0868 H   0  0  0  0  0  0  0  0  0  0  0  0
   20.7401   18.6421   22.5879 C   0  0  0  0  0  0  0  0  0  0  0  0
   20.3757   17.7833   23.1512 H   0  0  0  0  0  0  0  0  0  0  0  0
   20.1000   19.9700   22.9340 C   0  0  0  0  0  0  0  0  0  0  0  0
   20.8668   20.7564   22.9467 H   0  0  0  0  0  0  0  0  0  0  0  0
   19.6852   19.9305   23.9502 H   0  0  0  0  0  0  0  0  0  0  0  0
   18.9878   20.3637   21.9372 C   0  0  0  0  0  0  0  0  0  0  0  0
   18.6350   21.3768   22.1745 H   0  0  0  0  0  0  0  0  0  0  0  0
   19.4002   20.4054   20.9195 H   0  0  0  0  0  0  0  0  0  0  0  0
   17.7898   19.3910   21.9733 C   0  0  0  0  0  0  0  0  0  0  0  0
   17.3532   19.3429   22.9794 H   0  0  0  0  0  0  0  0  0  0  0  0
   17.0055   19.7188   21.2788 H   0  0  0  0  0  0  0  0  0  0  0  0
   18.0940   18.3770   21.6827 H   0  0  0  0  0  0  0  0  0  0  0  0
  1  2  1  0  0  0  0
  1  3  2  0  0  0  0
  1  4  1  0  0  0  0
  4  5  1  0  0  0  0
  4  6  2  0  0  0  0
  6  7  1  0  0  0  0
  6  8  1  0  0  0  0
  8  9  1  0  0  0  0
  8 10  1  0  0  0  0
  8 11  1  0  0  0  0
 11 12  1  0  0  0  0
 11 13  1  0  0  0  0
 11 14  1  0  0  0  0
 14 15  1  0  0  0  0
 14 16  1  0  0  0  0
 14 17  1  0  0  0  0
M  END
> <VConfSearch Rank>
951

> <Conf_Id>
3

> <Delta U+W>
0.531

> <U+W>
-52.878

> <U>
10.067

> <W>
-62.945

> <W(PB)>
-64.982

> <W(SA)>
2.037

> <Valence>
2.779

> <Coulomb>
6.474

> <VdW>
0.815

> <VdW6>
-5.088

> <VdW12>
5.902

> <Bond>
0.078

> <Angle>
2.651

> <Pdih>
0.050

> <Idih>
0.000

> <Tether>
0.000

$$$$
VeraChem MOL file


 17 16  0  0  0  0  0  0  0  0999 V2000     
   20.7933   16.4757   23.3287 C   0  0  0  0  0  0  0  0  0  0  0  0
   21.8876   16.1053   23.7069 O   0  5  0  0  0  0  0  0  0  0  0  0
   19.8901   15.7046   23.0643 O   0  0  0  0  0  0  0  0  0  0  0  0
   20.5723   17.9410   23.1940 C   0  0  0  0  0  0  0  0  0  0  0  0
   21.4205   18.5733   23.4462 H   0  0  0  0  0  0  0  0  0  0  0  0
   19.4080   18.4929   22.7825 C   0  0  0  0  0  0  0  0  0  0  0  0
   18.5544   17.8665   22.5244 H   0  0  0  0  0  0  0  0  0  0  0  0
   19.1869   19.9849   22.6438 C   0  0  0  0  0  0  0  0  0  0  0  0
   19.9545   20.5424   23.1977 H   0  0  0  0  0  0  0  0  0  0  0  0
   18.2257   20.2491   23.1045 H   0  0  0  0  0  0  0  0  0  0  0  0
   19.1774   20.4414   21.1685 C   0  0  0  0  0  0  0  0  0  0  0  0
   18.4117   19.8823   20.6130 H   0  0  0  0  0  0  0  0  0  0  0  0
   18.8878   21.5003   21.1227 H   0  0  0  0  0  0  0  0  0  0  0  0
   20.5495   20.2654   20.4834 C   0  0  0  0  0  0  0  0  0  0  0  0
   20.8440   19.2083   20.4523 H   0  0  0  0  0  0  0  0  0  0  0  0
   20.5157   20.6356   19.4506 H   0  0  0  0  0  0  0  0  0  0  0  0
   21.3296   20.8227   21.0182 H   0  0  0  0  0  0  0  0  0  0  0  0
  1  2  1  0  0  0  0
  1  3  2  0  0  0  0
  1  4  1  0  0  0  0
  4  5  1  0  0  0  0
  4  6  2  0  0  0  0
  6  7  1  0  0  0  0
  6  8  1  0  0  0  0
  8  9  1  0  0  0  0
  8 10  1  0  0  0  0
  8 11  1  0  0  0  0
 11 12  1  0  0  0  0
 11 13  1  0  0  0  0
 11 14  1  0  0  0  0
 14 15  1  0  0  0  0
 14 16  1  0  0  0  0
 14 17  1  0  0  0  0
M  END
> <VConfSearch Rank>
952

> <Conf_Id>
45

> <Delta U+W>
0.562

> <U+W>
-52.846

> <U>
10.243

> <W>
-63.089

> <W(PB)>
-65.116

> <W(SA)>
2.026

> <Valence>
2.822

> <Coulomb>
6.637

> <VdW>
0.785

> <VdW6>
-5.216

> <VdW12>
6.001

> <Bond>
0.080

> <Angle>
2.678

> <Pdih>
0.064

> <Idih>
0.000

> <Tether>
0.000

$$$$
VeraChem MOL file


 17 16  0  0  0  0  0  0  0  0999 V2000     
   19.6990   15.8807   21.0117 C   0  0  0  0  0  0  0  0  0  0  0  0
   19.8888   14.8778   21.6718 O   0  5  0  0  0  0  0  0  0  0  0  0
   19.5784   15.8618   19.8011 O   0  0  0  0  0  0  0  0  0  0  0  0
   19.6129   17.1762   21.7386 C   0  0  0  0  0  0  0  0  0  0  0  0
   19.7292   17.1230   22.8187 H   0  0  0  0  0  0  0  0  0  0  0  0
   19.4067   18.3679   21.1332 C   0  0  0  0  0  0  0  0  0  0  0  0
   19.2912   18.4329   20.0515 H   0  0  0  0  0  0  0  0  0  0  0  0
   19.3226   19.6812   21.8798 C   0  0  0  0  0  0  0  0  0  0  0  0
   18.7874   19.5402   22.8287 H   0  0  0  0  0  0  0  0  0  0  0  0
   18.7349   20.4005   21.2935 H   0  0  0  0  0  0  0  0  0  0  0  0
   20.7247   20.2624   22.1542 C   0  0  0  0  0  0  0  0  0  0  0  0
   21.3126   19.5456   22.7443 H   0  0  0  0  0  0  0  0  0  0  0  0
   21.2572   20.4044   21.2035 H   0  0  0  0  0  0  0  0  0  0  0  0
   20.6473   21.6060   22.9067 C   0  0  0  0  0  0  0  0  0  0  0  0
   20.0911   22.3516   22.3235 H   0  0  0  0  0  0  0  0  0  0  0  0
   20.1461   21.4851   23.8760 H   0  0  0  0  0  0  0  0  0  0  0  0
   21.6536   22.0035   23.0928 H   0  0  0  0  0  0  0  0  0  0  0  0
  1  2  1  0  0  0  0
  1  3  2  0  0  0  0
  1  4  1  0  0  0  0
  4  5  1  0  0  0  0
  4  6  2  0  0  0  0
  6  7  1  0  0  0  0
  6  8  1  0  0  0  0
  8  9  1  0  0  0  0
  8 10  1  0  0  0  0
  8 11  1  0  0  0  0
 11 12  1  0  0  0  0
 11 13  1  0  0  0  0
 11 14  1  0  0  0  0
 14 15  1  0  0  0  0
 14 16  1  0  0  0  0
 14 17  1  0  0  0  0
M  END
> <VConfSearch Rank>
953

> <Conf_Id>
36

> <Delta U+W>
0.000

> <U+W>
-53.409

> <U>
9.048

> <W>
-62.457

> <W(PB)>
-64.540

> <W(SA)>
2.084

> <Valence>
2.652

> <Coulomb>
5.578

> <VdW>
0.818

> <VdW6>
-4.534

> <VdW12>
5.352

> <Bond>
0.063

> <Angle>
2.579

> <Pdih>
0.010

> <Idih>
0.000

> <Tether>
0.000

$$$$
VeraChem MOL file


 17 16  0  0  0  0  0  0  0  0999 V2000     
   22.1692   17.8142   19.6559 C   0  0  0  0  0  0  0  0  0  0  0  0
   23.0792   17.3075   20.2849 O   0  5  0  0  0  0  0  0  0  0  0  0
   22.2109   17.9802   18.4524 O   0  0  0  0  0  0  0  0  0  0  0  0
   20.9404   18.2571   20.3689 C   0  0  0  0  0  0  0  0  0  0  0  0
   20.1657   18.7015   19.7482 H   0  0  0  0  0  0  0  0  0  0  0  0
   20.7581   18.1355   21.7034 C   0  0  0  0  0  0  0  0  0  0  0  0
   21.5287   17.6937   22.3350 H   0  0  0  0  0  0  0  0  0  0  0  0
   19.5061   18.5901   22.4209 C   0  0  0  0  0  0  0  0  0  0  0  0
   19.3881   18.0197   23.3521 H   0  0  0  0  0  0  0  0  0  0  0  0
   18.6214   18.3726   21.8070 H   0  0  0  0  0  0  0  0  0  0  0  0
   19.5587   20.0978   22.7423 C   0  0  0  0  0  0  0  0  0  0  0  0
   20.4431   20.3125   23.3582 H   0  0  0  0  0  0  0  0  0  0  0  0
   19.6726   20.6702   21.8113 H   0  0  0  0  0  0  0  0  0  0  0  0
   18.2899   20.5673   23.4821 C   0  0  0  0  0  0  0  0  0  0  0  0
   18.1690   20.0324   24.4333 H   0  0  0  0  0  0  0  0  0  0  0  0
   18.3456   21.6414   23.7020 H   0  0  0  0  0  0  0  0  0  0  0  0
   17.3929   20.3920   22.8737 H   0  0  0  0  0  0  0  0  0  0  0  0
  1  2  1  0  0  0  0
  1  3  2  0  0  0  0
  1  4  1  0  0  0  0
  4  5  1  0  0  0  0
  4  6  2  0  0  0  0
  6  7  1  0  0  0  0
  6  8  1  0  0  0  0
  8  9  1  0  0  0  0
  8 10  1  0  0  0  0
  8 11  1  0  0  0  0
 11 12  1  0  0  0  0
 11 13  1  0  0  0  0
 11 14  1  0  0  0  0
 14 15  1  0  0  0  0
 14 16  1  0  0  0  0
 14 17  1  0  0  0  0
M  END
> <VConfSearch Rank>
954

> <Conf_Id>
1

> <Delta U+W>
0.030

> <U+W>
-53.378

> <U>
9.048

> <W>
-62.426

> <W(PB)>
-64.506

> <W(SA)>
2.080

> <Valence>
2.652

> <Coulomb>
5.578

> <VdW>
0.818

> <VdW6>
-4.535

> <VdW12>
5.352

> <Bond>
0.063

> <Angle>
2.579

> <Pdih>
0.010

> <Idih>
0.000

> <Tether>
0.000

$$$$
VeraChem MOL file


 17 16  0  0  0  0  0  0  0  0999 V2000     
   18.6478   20.0779   19.4722 C   0  0  0  0  0  0  0  0  0  0  0  0
   19.4227   19.6530   18.6359 O   0  5  0  0  0  0  0  0  0  0  0  0
   17.5269   20.4608   19.1991 O   0  0  0  0  0  0  0  0  0  0  0  0
   19.0687   20.1449   20.8979 C   0  0  0  0  0  0  0  0  0  0  0  0
   18.3292   20.5352   21.5933 H   0  0  0  0  0  0  0  0  0  0  0  0
   20.2834   19.7524   21.3443 C   0  0  0  0  0  0  0  0  0  0  0  0
   21.0306   19.3567   20.6567 H   0  0  0  0  0  0  0  0  0  0  0  0
   20.7034   19.8199   22.7976 C   0  0  0  0  0  0  0  0  0  0  0  0
   20.3406   20.7563   23.2427 H   0  0  0  0  0  0  0  0  0  0  0  0
   21.7990   19.8517   22.8681 H   0  0  0  0  0  0  0  0  0  0  0  0
   20.1674   18.6275   23.6202 C   0  0  0  0  0  0  0  0  0  0  0  0
   20.4118   18.7835   24.6799 H   0  0  0  0  0  0  0  0  0  0  0  0
   19.0712   18.5938   23.5526 H   0  0  0  0  0  0  0  0  0  0  0  0
   20.7585   17.2780   23.1595 C   0  0  0  0  0  0  0  0  0  0  0  0
   21.8539   17.2843   23.2306 H   0  0  0  0  0  0  0  0  0  0  0  0
   20.3829   16.4584   23.7857 H   0  0  0  0  0  0  0  0  0  0  0  0
   20.4836   17.0596   22.1193 H   0  0  0  0  0  0  0  0  0  0  0  0
  1  2  1  0  0  0  0
  1  3  2  0  0  0  0
  1  4  1  0  0  0  0
  4  5  1  0  0  0  0
  4  6  2  0  0  0  0
  6  7  1  0  0  0  0
  6  8  1  0  0  0  0
  8  9  1  0  0  0  0
  8 10  1  0  0  0  0
  8 11  1  0  0  0  0
 11 12  1  0  0  0  0
 11 13  1  0  0  0  0
 11 14  1  0  0  0  0
 14 15  1  0  0  0  0
 14 16  1  0  0  0  0
 14 17  1  0  0  0  0
M  END
> <VConfSearch Rank>
955

> <Conf_Id>
3

> <Delta U+W>
0.531

> <U+W>
-52.878

> <U>
10.067

> <W>
-62.945

> <W(PB)>
-64.982

> <W(SA)>
2.037

> <Valence>
2.779

> <Coulomb>
6.474

> <VdW>
0.815

> <VdW6>
-5.088

> <VdW12>
5.902

> <Bond>
0.078

> <Angle>
2.651

> <Pdih>
0.050

> <Idih>
0.000

> <Tether>
0.000

$$$$
VeraChem MOL file


 17 16  0  0  0  0  0  0  0  0999 V2000     
   18.4262   21.3799   23.3066 C   0  0  0  0  0  0  0  0  0  0  0  0
   18.8056   22.4880   23.6321 O   0  5  0  0  0  0  0  0  0  0  0  0
   17.4152   20.8706   23.7528 O   0  0  0  0  0  0  0  0  0  0  0  0
   19.2491   20.6352   22.3155 C   0  0  0  0  0  0  0  0  0  0  0  0
   20.1389   21.1479   21.9576 H   0  0  0  0  0  0  0  0  0  0  0  0
   18.9483   19.3954   21.8659 C   0  0  0  0  0  0  0  0  0  0  0  0
   18.0607   18.8731   22.2221 H   0  0  0  0  0  0  0  0  0  0  0  0
   19.7896   18.6387   20.8590 C   0  0  0  0  0  0  0  0  0  0  0  0
   20.4677   19.3224   20.3305 H   0  0  0  0  0  0  0  0  0  0  0  0
   19.1309   18.2090   20.0925 H   0  0  0  0  0  0  0  0  0  0  0  0
   20.6050   17.5018   21.5130 C   0  0  0  0  0  0  0  0  0  0  0  0
   19.9277   16.8188   22.0442 H   0  0  0  0  0  0  0  0  0  0  0  0
   21.0920   16.9109   20.7251 H   0  0  0  0  0  0  0  0  0  0  0  0
   21.6822   18.0273   22.4859 C   0  0  0  0  0  0  0  0  0  0  0  0
   21.2276   18.5702   23.3247 H   0  0  0  0  0  0  0  0  0  0  0  0
   22.2665   17.1957   22.9007 H   0  0  0  0  0  0  0  0  0  0  0  0
   22.3758   18.7068   21.9737 H   0  0  0  0  0  0  0  0  0  0  0  0
  1  2  1  0  0  0  0
  1  3  2  0  0  0  0
  1  4  1  0  0  0  0
  4  5  1  0  0  0  0
  4  6  2  0  0  0  0
  6  7  1  0  0  0  0
  6  8  1  0  0  0  0
  8  9  1  0  0  0  0
  8 10  1  0  0  0  0
  8 11  1  0  0  0  0
 11 12  1  0  0  0  0
 11 13  1  0  0  0  0
 11 14  1  0  0  0  0
 14 15  1  0  0  0  0
 14 16  1  0  0  0  0
 14 17  1  0  0  0  0
M  END
> <VConfSearch Rank>
956

> <Conf_Id>
45

> <Delta U+W>
0.562

> <U+W>
-52.846

> <U>
10.243

> <W>
-63.089

> <W(PB)>
-65.116

> <W(SA)>
2.026

> <Valence>
2.822

> <Coulomb>
6.637

> <VdW>
0.785

> <VdW6>
-5.216

> <VdW12>
6.001

> <Bond>
0.080

> <Angle>
2.678

> <Pdih>
0.064

> <Idih>
0.000

> <Tether>
0.000

$$$$
VeraChem MOL file


 17 16  0  0  0  0  0  0  0  0999 V2000     
   18.6803   17.4884   19.2678 C   0  0  0  0  0  0  0  0  0  0  0  0
   17.6460   17.7046   18.6669 O   0  5  0  0  0  0  0  0  0  0  0  0
   19.3214   16.4633   19.1317 O   0  0  0  0  0  0  0  0  0  0  0  0
   19.1640   18.5389   20.2041 C   0  0  0  0  0  0  0  0  0  0  0  0
   18.5446   19.4297   20.2788 H   0  0  0  0  0  0  0  0  0  0  0  0
   20.2956   18.4322   20.9370 C   0  0  0  0  0  0  0  0  0  0  0  0
   20.9224   17.5430   20.8716 H   0  0  0  0  0  0  0  0  0  0  0  0
   20.7794   19.5044   21.8886 C   0  0  0  0  0  0  0  0  0  0  0  0
   20.5915   20.4987   21.4610 H   0  0  0  0  0  0  0  0  0  0  0  0
   21.8671   19.4195   22.0161 H   0  0  0  0  0  0  0  0  0  0  0  0
   20.0883   19.3896   23.2627 C   0  0  0  0  0  0  0  0  0  0  0  0
   19.0002   19.4786   23.1375 H   0  0  0  0  0  0  0  0  0  0  0  0
   20.2794   18.3951   23.6893 H   0  0  0  0  0  0  0  0  0  0  0  0
   20.5830   20.4734   24.2417 C   0  0  0  0  0  0  0  0  0  0  0  0
   21.6645   20.3871   24.4097 H   0  0  0  0  0  0  0  0  0  0  0  0
   20.3755   21.4787   23.8523 H   0  0  0  0  0  0  0  0  0  0  0  0
   20.0804   20.3758   25.2128 H   0  0  0  0  0  0  0  0  0  0  0  0
  1  2  1  0  0  0  0
  1  3  2  0  0  0  0
  1  4  1  0  0  0  0
  4  5  1  0  0  0  0
  4  6  2  0  0  0  0
  6  7  1  0  0  0  0
  6  8  1  0  0  0  0
  8  9  1  0  0  0  0
  8 10  1  0  0  0  0
  8 11  1  0  0  0  0
 11 12  1  0  0  0  0
 11 13  1  0  0  0  0
 11 14  1  0  0  0  0
 14 15  1  0  0  0  0
 14 16  1  0  0  0  0
 14 17  1  0  0  0  0
M  END
> <VConfSearch Rank>
957

> <Conf_Id>
36

> <Delta U+W>
0.000

> <U+W>
-53.409

> <U>
9.048

> <W>
-62.457

> <W(PB)>
-64.540

> <W(SA)>
2.084

> <Valence>
2.652

> <Coulomb>
5.578

> <VdW>
0.818

> <VdW6>
-4.534

> <VdW12>
5.352

> <Bond>
0.063

> <Angle>
2.579

> <Pdih>
0.010

> <Idih>
0.000

> <Tether>
0.000

$$$$
VeraChem MOL file


 17 16  0  0  0  0  0  0  0  0999 V2000     
   18.4279   16.5705   20.3333 C   0  0  0  0  0  0  0  0  0  0  0  0
   17.8012   15.9624   21.1806 O   0  5  0  0  0  0  0  0  0  0  0  0
   18.5786   16.1571   19.2002 O   0  0  0  0  0  0  0  0  0  0  0  0
   19.0451   17.8807   20.6749 C   0  0  0  0  0  0  0  0  0  0  0  0
   19.5910   18.3718   19.8725 H   0  0  0  0  0  0  0  0  0  0  0  0
   18.9591   18.4594   21.8942 C   0  0  0  0  0  0  0  0  0  0  0  0
   18.4165   17.9751   22.7059 H   0  0  0  0  0  0  0  0  0  0  0  0
   19.5913   19.7914   22.2339 C   0  0  0  0  0  0  0  0  0  0  0  0
   19.0494   20.2532   23.0702 H   0  0  0  0  0  0  0  0  0  0  0  0
   19.4976   20.4795   21.3827 H   0  0  0  0  0  0  0  0  0  0  0  0
   21.0783   19.6280   22.6099 C   0  0  0  0  0  0  0  0  0  0  0  0
   21.1693   18.9410   23.4627 H   0  0  0  0  0  0  0  0  0  0  0  0
   21.6228   19.1698   21.7726 H   0  0  0  0  0  0  0  0  0  0  0  0
   21.7277   20.9802   22.9665 C   0  0  0  0  0  0  0  0  0  0  0  0
   21.2215   21.4458   23.8223 H   0  0  0  0  0  0  0  0  0  0  0  0
   22.7844   20.8440   23.2310 H   0  0  0  0  0  0  0  0  0  0  0  0
   21.6777   21.6758   22.1185 H   0  0  0  0  0  0  0  0  0  0  0  0
  1  2  1  0  0  0  0
  1  3  2  0  0  0  0
  1  4  1  0  0  0  0
  4  5  1  0  0  0  0
  4  6  2  0  0  0  0
  6  7  1  0  0  0  0
  6  8  1  0  0  0  0
  8  9  1  0  0  0  0
  8 10  1  0  0  0  0
  8 11  1  0  0  0  0
 11 12  1  0  0  0  0
 11 13  1  0  0  0  0
 11 14  1  0  0  0  0
 14 15  1  0  0  0  0
 14 16  1  0  0  0  0
 14 17  1  0  0  0  0
M  END
> <VConfSearch Rank>
958

> <Conf_Id>
1

> <Delta U+W>
0.030

> <U+W>
-53.378

> <U>
9.048

> <W>
-62.426

> <W(PB)>
-64.506

> <W(SA)>
2.080

> <Valence>
2.652

> <Coulomb>
5.578

> <VdW>
0.818

> <VdW6>
-4.535

> <VdW12>
5.352

> <Bond>
0.063

> <Angle>
2.579

> <Pdih>
0.010

> <Idih>
0.000

> <Tether>
0.000

$$$$
VeraChem MOL file


 17 16  0  0  0  0  0  0  0  0999 V2000     
   20.7124   22.0109   21.3632 C   0  0  0  0  0  0  0  0  0  0  0  0
   21.7657   22.1314   21.9602 O   0  5  0  0  0  0  0  0  0  0  0  0
   20.3459   22.7924   20.5072 O   0  0  0  0  0  0  0  0  0  0  0  0
   19.8147   20.8670   21.6793 C   0  0  0  0  0  0  0  0  0  0  0  0
   18.8890   20.8187   21.1105 H   0  0  0  0  0  0  0  0  0  0  0  0
   20.0952   19.9225   22.6057 C   0  0  0  0  0  0  0  0  0  0  0  0
   21.0213   19.9594   23.1790 H   0  0  0  0  0  0  0  0  0  0  0  0
   19.1783   18.7589   22.9193 C   0  0  0  0  0  0  0  0  0  0  0  0
   18.1355   19.1038   22.9288 H   0  0  0  0  0  0  0  0  0  0  0  0
   19.3855   18.3828   23.9302 H   0  0  0  0  0  0  0  0  0  0  0  0
   19.3212   17.6070   21.9004 C   0  0  0  0  0  0  0  0  0  0  0  0
   18.5626   16.8416   22.1148 H   0  0  0  0  0  0  0  0  0  0  0  0
   19.1132   17.9800   20.8880 H   0  0  0  0  0  0  0  0  0  0  0  0
   20.7199   16.9551   21.9370 C   0  0  0  0  0  0  0  0  0  0  0  0
   20.9445   16.5633   22.9377 H   0  0  0  0  0  0  0  0  0  0  0  0
   20.7755   16.1207   21.2260 H   0  0  0  0  0  0  0  0  0  0  0  0
   21.5011   17.6782   21.6687 H   0  0  0  0  0  0  0  0  0  0  0  0
  1  2  1  0  0  0  0
  1  3  2  0  0  0  0
  1  4  1  0  0  0  0
  4  5  1  0  0  0  0
  4  6  2  0  0  0  0
  6  7  1  0  0  0  0
  6  8  1  0  0  0  0
  8  9  1  0  0  0  0
  8 10  1  0  0  0  0
  8 11  1  0  0  0  0
 11 12  1  0  0  0  0
 11 13  1  0  0  0  0
 11 14  1  0  0  0  0
 14 15  1  0  0  0  0
 14 16  1  0  0  0  0
 14 17  1  0  0  0  0
M  END
> <VConfSearch Rank>
959

> <Conf_Id>
3

> <Delta U+W>
0.531

> <U+W>
-52.878

> <U>
10.067

> <W>
-62.945

> <W(PB)>
-64.982

> <W(SA)>
2.037

> <Valence>
2.779

> <Coulomb>
6.474

> <VdW>
0.815

> <VdW6>
-5.088

> <VdW12>
5.902

> <Bond>
0.078

> <Angle>
2.651

> <Pdih>
0.050

> <Idih>
0.000

> <Tether>
0.000

$$$$
VeraChem MOL file


 17 16  0  0  0  0  0  0  0  0999 V2000     
   17.3844   19.6209   23.5342 C   0  0  0  0  0  0  0  0  0  0  0  0
   16.7472   18.8896   24.2670 O   0  5  0  0  0  0  0  0  0  0  0  0
   16.8951   20.5842   22.9746 O   0  0  0  0  0  0  0  0  0  0  0  0
   18.8243   19.3054   23.3312 C   0  0  0  0  0  0  0  0  0  0  0  0
   19.1972   18.4316   23.8604 H   0  0  0  0  0  0  0  0  0  0  0  0
   19.6506   20.0302   22.5429 C   0  0  0  0  0  0  0  0  0  0  0  0
   19.2844   20.9050   22.0061 H   0  0  0  0  0  0  0  0  0  0  0  0
   21.1155   19.7049   22.3360 C   0  0  0  0  0  0  0  0  0  0  0  0
   21.4750   19.0253   23.1206 H   0  0  0  0  0  0  0  0  0  0  0  0
   21.7048   20.6261   22.4365 H   0  0  0  0  0  0  0  0  0  0  0  0
   21.3879   19.0851   20.9479 C   0  0  0  0  0  0  0  0  0  0  0  0
   21.0262   19.7631   20.1624 H   0  0  0  0  0  0  0  0  0  0  0  0
   22.4730   18.9896   20.8047 H   0  0  0  0  0  0  0  0  0  0  0  0
   20.7342   17.6970   20.7787 C   0  0  0  0  0  0  0  0  0  0  0  0
   19.6408   17.7625   20.8514 H   0  0  0  0  0  0  0  0  0  0  0  0
   20.9810   17.2711   19.7976 H   0  0  0  0  0  0  0  0  0  0  0  0
   21.0876   17.0000   21.5497 H   0  0  0  0  0  0  0  0  0  0  0  0
  1  2  1  0  0  0  0
  1  3  2  0  0  0  0
  1  4  1  0  0  0  0
  4  5  1  0  0  0  0
  4  6  2  0  0  0  0
  6  7  1  0  0  0  0
  6  8  1  0  0  0  0
  8  9  1  0  0  0  0
  8 10  1  0  0  0  0
  8 11  1  0  0  0  0
 11 12  1  0  0  0  0
 11 13  1  0  0  0  0
 11 14  1  0  0  0  0
 14 15  1  0  0  0  0
 14 16  1  0  0  0  0
 14 17  1  0  0  0  0
M  END
> <VConfSearch Rank>
960

> <Conf_Id>
45

> <Delta U+W>
0.562

> <U+W>
-52.846

> <U>
10.243

> <W>
-63.089

> <W(PB)>
-65.116

> <W(SA)>
2.026

> <Valence>
2.822

> <Coulomb>
6.637

> <VdW>
0.785

> <VdW6>
-5.216

> <VdW12>
6.001

> <Bond>
0.080

> <Angle>
2.678

> <Pdih>
0.064

> <Idih>
0.000

> <Tether>
0.000

$$$$
VeraChem MOL file


 17 16  0  0  0  0  0  0  0  0999 V2000     
   17.5860   18.5987   19.6083 C   0  0  0  0  0  0  0  0  0  0  0  0
   17.1176   17.5510   19.2074 O   0  5  0  0  0  0  0  0  0  0  0  0
   17.3973   19.6631   19.0500 O   0  0  0  0  0  0  0  0  0  0  0  0
   18.4220   18.5520   20.8384 C   0  0  0  0  0  0  0  0  0  0  0  0
   18.5508   17.5699   21.2877 H   0  0  0  0  0  0  0  0  0  0  0  0
   19.0056   19.6378   21.3947 C   0  0  0  0  0  0  0  0  0  0  0  0
   18.8850   20.6261   20.9515 H   0  0  0  0  0  0  0  0  0  0  0  0
   19.8562   19.5813   22.6447 C   0  0  0  0  0  0  0  0  0  0  0  0
   19.4285   18.8636   23.3580 H   0  0  0  0  0  0  0  0  0  0  0  0
   19.8446   20.5606   23.1420 H   0  0  0  0  0  0  0  0  0  0  0  0
   21.3106   19.1859   22.3173 C   0  0  0  0  0  0  0  0  0  0  0  0
   21.3243   18.2043   21.8234 H   0  0  0  0  0  0  0  0  0  0  0  0
   21.7369   19.9063   21.6054 H   0  0  0  0  0  0  0  0  0  0  0  0
   22.1866   19.1353   23.5852 C   0  0  0  0  0  0  0  0  0  0  0  0
   22.2161   20.1140   24.0818 H   0  0  0  0  0  0  0  0  0  0  0  0
   21.7990   18.3988   24.3013 H   0  0  0  0  0  0  0  0  0  0  0  0
   23.2168   18.8524   23.3325 H   0  0  0  0  0  0  0  0  0  0  0  0
  1  2  1  0  0  0  0
  1  3  2  0  0  0  0
  1  4  1  0  0  0  0
  4  5  1  0  0  0  0
  4  6  2  0  0  0  0
  6  7  1  0  0  0  0
  6  8  1  0  0  0  0
  8  9  1  0  0  0  0
  8 10  1  0  0  0  0
  8 11  1  0  0  0  0
 11 12  1  0  0  0  0
 11 13  1  0  0  0  0
 11 14  1  0  0  0  0
 14 15  1  0  0  0  0
 14 16  1  0  0  0  0
 14 17  1  0  0  0  0
M  END
> <VConfSearch Rank>
961

> <Conf_Id>
36

> <Delta U+W>
0.000

> <U+W>
-53.409

> <U>
9.048

> <W>
-62.457

> <W(PB)>
-64.540

> <W(SA)>
2.084

> <Valence>
2.652

> <Coulomb>
5.578

> <VdW>
0.818

> <VdW6>
-4.534

> <VdW12>
5.352

> <Bond>
0.063

> <Angle>
2.579

> <Pdih>
0.010

> <Idih>
0.000

> <Tether>
0.000

$$$$
VeraChem MOL file


 17 16  0  0  0  0  0  0  0  0999 V2000     
   21.5120   21.8037   20.5767 C   0  0  0  0  0  0  0  0  0  0  0  0
   21.0219   22.7787   21.1147 O   0  5  0  0  0  0  0  0  0  0  0  0
   22.2346   21.8810   19.6022 O   0  0  0  0  0  0  0  0  0  0  0  0
   21.2303   20.4465   21.1177 C   0  0  0  0  0  0  0  0  0  0  0  0
   21.6991   19.6187   20.5905 H   0  0  0  0  0  0  0  0  0  0  0  0
   20.4448   20.2119   22.1934 C   0  0  0  0  0  0  0  0  0  0  0  0
   19.9684   21.0338   22.7277 H   0  0  0  0  0  0  0  0  0  0  0  0
   20.1619   18.8283   22.7361 C   0  0  0  0  0  0  0  0  0  0  0  0
   19.9020   18.8969   23.8011 H   0  0  0  0  0  0  0  0  0  0  0  0
   21.0668   18.2085   22.6747 H   0  0  0  0  0  0  0  0  0  0  0  0
   19.0113   18.1473   21.9670 C   0  0  0  0  0  0  0  0  0  0  0  0
   18.1068   18.7680   22.0317 H   0  0  0  0  0  0  0  0  0  0  0  0
   19.2715   18.0741   20.9018 H   0  0  0  0  0  0  0  0  0  0  0  0
   18.7105   16.7399   22.5202 C   0  0  0  0  0  0  0  0  0  0  0  0
   18.4165   16.7876   23.5770 H   0  0  0  0  0  0  0  0  0  0  0  0
   17.8900   16.2717   21.9610 H   0  0  0  0  0  0  0  0  0  0  0  0
   19.5910   16.0891   22.4383 H   0  0  0  0  0  0  0  0  0  0  0  0
  1  2  1  0  0  0  0
  1  3  2  0  0  0  0
  1  4  1  0  0  0  0
  4  5  1  0  0  0  0
  4  6  2  0  0  0  0
  6  7  1  0  0  0  0
  6  8  1  0  0  0  0
  8  9  1  0  0  0  0
  8 10  1  0  0  0  0
  8 11  1  0  0  0  0
 11 12  1  0  0  0  0
 11 13  1  0  0  0  0
 11 14  1  0  0  0  0
 14 15  1  0  0  0  0
 14 16  1  0  0  0  0
 14 17  1  0  0  0  0
M  END
> <VConfSearch Rank>
962

> <Conf_Id>
1

> <Delta U+W>
0.030

> <U+W>
-53.378

> <U>
9.048

> <W>
-62.426

> <W(PB)>
-64.506

> <W(SA)>
2.080

> <Valence>
2.652

> <Coulomb>
5.578

> <VdW>
0.818

> <VdW6>
-4.535

> <VdW12>
5.352

> <Bond>
0.063

> <Angle>
2.579

> <Pdih>
0.010

> <Idih>
0.000

> <Tether>
0.000

$$$$
VeraChem MOL file


 17 16  0  0  0  0  0  0  0  0999 V2000     
   18.0549   21.0678   23.3664 C   0  0  0  0  0  0  0  0  0  0  0  0
   17.5635   21.5791   22.3777 O   0  5  0  0  0  0  0  0  0  0  0  0
   17.5634   21.1667   24.4739 O   0  0  0  0  0  0  0  0  0  0  0  0
   19.3142   20.2851   23.2408 C   0  0  0  0  0  0  0  0  0  0  0  0
   19.7003   19.8558   24.1624 H   0  0  0  0  0  0  0  0  0  0  0  0
   19.9682   20.0921   22.0729 C   0  0  0  0  0  0  0  0  0  0  0  0
   19.5884   20.5148   21.1430 H   0  0  0  0  0  0  0  0  0  0  0  0
   21.2475   19.2909   21.9521 C   0  0  0  0  0  0  0  0  0  0  0  0
   21.9034   19.5137   22.8045 H   0  0  0  0  0  0  0  0  0  0  0  0
   21.7977   19.6002   21.0533 H   0  0  0  0  0  0  0  0  0  0  0  0
   20.9854   17.7697   21.8990 C   0  0  0  0  0  0  0  0  0  0  0  0
   21.9470   17.2387   21.9185 H   0  0  0  0  0  0  0  0  0  0  0  0
   20.4359   17.4569   22.7978 H   0  0  0  0  0  0  0  0  0  0  0  0
   20.2017   17.3482   20.6377 C   0  0  0  0  0  0  0  0  0  0  0  0
   20.7390   17.6399   19.7259 H   0  0  0  0  0  0  0  0  0  0  0  0
   20.0628   16.2596   20.6156 H   0  0  0  0  0  0  0  0  0  0  0  0
   19.2082   17.8147   20.6143 H   0  0  0  0  0  0  0  0  0  0  0  0
  1  2  1  0  0  0  0
  1  3  2  0  0  0  0
  1  4  1  0  0  0  0
  4  5  1  0  0  0  0
  4  6  2  0  0  0  0
  6  7  1  0  0  0  0
  6  8  1  0  0  0  0
  8  9  1  0  0  0  0
  8 10  1  0  0  0  0
  8 11  1  0  0  0  0
 11 12  1  0  0  0  0
 11 13  1  0  0  0  0
 11 14  1  0  0  0  0
 14 15  1  0  0  0  0
 14 16  1  0  0  0  0
 14 17  1  0  0  0  0
M  END
> <VConfSearch Rank>
963

> <Conf_Id>
3

> <Delta U+W>
0.531

> <U+W>
-52.878

> <U>
10.067

> <W>
-62.945

> <W(PB)>
-64.982

> <W(SA)>
2.037

> <Valence>
2.779

> <Coulomb>
6.474

> <VdW>
0.815

> <VdW6>
-5.088

> <VdW12>
5.902

> <Bond>
0.078

> <Angle>
2.651

> <Pdih>
0.050

> <Idih>
0.000

> <Tether>
0.000

$$$$
VeraChem MOL file


 17 16  0  0  0  0  0  0  0  0999 V2000     
   18.1217   21.3364   22.8967 C   0  0  0  0  0  0  0  0  0  0  0  0
   16.9886   21.5772   22.5282 O   0  5  0  0  0  0  0  0  0  0  0  0
   18.8420   22.1736   23.4073 O   0  0  0  0  0  0  0  0  0  0  0  0
   18.6259   19.9493   22.7071 C   0  0  0  0  0  0  0  0  0  0  0  0
   17.9313   19.2516   22.2452 H   0  0  0  0  0  0  0  0  0  0  0  0
   19.8644   19.5419   23.0674 C   0  0  0  0  0  0  0  0  0  0  0  0
   20.5679   20.2354   23.5275 H   0  0  0  0  0  0  0  0  0  0  0  0
   20.3758   18.1298   22.8706 C   0  0  0  0  0  0  0  0  0  0  0  0
   19.5410   17.4371   22.6976 H   0  0  0  0  0  0  0  0  0  0  0  0
   20.8648   17.7937   23.7947 H   0  0  0  0  0  0  0  0  0  0  0  0
   21.3841   18.0287   21.7052 C   0  0  0  0  0  0  0  0  0  0  0  0
   22.2182   18.7232   21.8762 H   0  0  0  0  0  0  0  0  0  0  0  0
   21.8152   17.0181   21.6908 H   0  0  0  0  0  0  0  0  0  0  0  0
   20.7379   18.3192   20.3338 C   0  0  0  0  0  0  0  0  0  0  0  0
   20.3515   19.3457   20.2874 H   0  0  0  0  0  0  0  0  0  0  0  0
   21.4731   18.2000   19.5275 H   0  0  0  0  0  0  0  0  0  0  0  0
   19.9054   17.6308   20.1384 H   0  0  0  0  0  0  0  0  0  0  0  0
  1  2  1  0  0  0  0
  1  3  2  0  0  0  0
  1  4  1  0  0  0  0
  4  5  1  0  0  0  0
  4  6  2  0  0  0  0
  6  7  1  0  0  0  0
  6  8  1  0  0  0  0
  8  9  1  0  0  0  0
  8 10  1  0  0  0  0
  8 11  1  0  0  0  0
 11 12  1  0  0  0  0
 11 13  1  0  0  0  0
 11 14  1  0  0  0  0
 14 15  1  0  0  0  0
 14 16  1  0  0  0  0
 14 17  1  0  0  0  0
M  END
> <VConfSearch Rank>
964

> <Conf_Id>
45

> <Delta U+W>
0.562

> <U+W>
-52.846

> <U>
10.243

> <W>
-63.089

> <W(PB)>
-65.116

> <W(SA)>
2.026

> <Valence>
2.822

> <Coulomb>
6.637

> <VdW>
0.785

> <VdW6>
-5.216

> <VdW12>
6.001

> <Bond>
0.080

> <Angle>
2.678

> <Pdih>
0.064

> <Idih>
0.000

> <Tether>
0.000

$$$$
VeraChem MOL file


 17 16  0  0  0  0  0  0  0  0999 V2000     
   18.8305   16.1434   22.9996 C   0  0  0  0  0  0  0  0  0  0  0  0
   18.6108   15.7716   24.1360 O   0  5  0  0  0  0  0  0  0  0  0  0
   18.8705   15.3819   22.0515 O   0  0  0  0  0  0  0  0  0  0  0  0
   19.0557   17.5983   22.7837 C   0  0  0  0  0  0  0  0  0  0  0  0
   19.0063   18.2233   23.6725 H   0  0  0  0  0  0  0  0  0  0  0  0
   19.3112   18.1504   21.5758 C   0  0  0  0  0  0  0  0  0  0  0  0
   19.3652   17.5332   20.6791 H   0  0  0  0  0  0  0  0  0  0  0  0
   19.5412   19.6309   21.3651 C   0  0  0  0  0  0  0  0  0  0  0  0
   18.8686   20.2112   22.0113 H   0  0  0  0  0  0  0  0  0  0  0  0
   19.2884   19.8988   20.3303 H   0  0  0  0  0  0  0  0  0  0  0  0
   21.0054   20.0190   21.6557 C   0  0  0  0  0  0  0  0  0  0  0  0
   21.2587   19.7554   22.6920 H   0  0  0  0  0  0  0  0  0  0  0  0
   21.6761   19.4388   21.0068 H   0  0  0  0  0  0  0  0  0  0  0  0
   21.2504   21.5251   21.4342 C   0  0  0  0  0  0  0  0  0  0  0  0
   21.0350   21.8097   20.3959 H   0  0  0  0  0  0  0  0  0  0  0  0
   20.6133   22.1281   22.0944 H   0  0  0  0  0  0  0  0  0  0  0  0
   22.2966   21.7820   21.6457 H   0  0  0  0  0  0  0  0  0  0  0  0
  1  2  1  0  0  0  0
  1  3  2  0  0  0  0
  1  4  1  0  0  0  0
  4  5  1  0  0  0  0
  4  6  2  0  0  0  0
  6  7  1  0  0  0  0
  6  8  1  0  0  0  0
  8  9  1  0  0  0  0
  8 10  1  0  0  0  0
  8 11  1  0  0  0  0
 11 12  1  0  0  0  0
 11 13  1  0  0  0  0
 11 14  1  0  0  0  0
 14 15  1  0  0  0  0
 14 16  1  0  0  0  0
 14 17  1  0  0  0  0
M  END
> <VConfSearch Rank>
965

> <Conf_Id>
36

> <Delta U+W>
0.000

> <U+W>
-53.409

> <U>
9.048

> <W>
-62.457

> <W(PB)>
-64.540

> <W(SA)>
2.084

> <Valence>
2.652

> <Coulomb>
5.578

> <VdW>
0.818

> <VdW6>
-4.534

> <VdW12>
5.352

> <Bond>
0.063

> <Angle>
2.579

> <Pdih>
0.010

> <Idih>
0.000

> <Tether>
0.000

$$$$
VeraChem MOL file


 17 16  0  0  0  0  0  0  0  0999 V2000     
   20.2378   16.3452   19.9705 C   0  0  0  0  0  0  0  0  0  0  0  0
   20.4618   16.7311   18.8386 O   0  5  0  0  0  0  0  0  0  0  0  0
   19.9463   15.1939   20.2298 O   0  0  0  0  0  0  0  0  0  0  0  0
   20.3193   17.3058   21.1040 C   0  0  0  0  0  0  0  0  0  0  0  0
   20.1078   16.8964   22.0892 H   0  0  0  0  0  0  0  0  0  0  0  0
   20.6310   18.6142   20.9623 C   0  0  0  0  0  0  0  0  0  0  0  0
   20.8426   19.0353   19.9796 H   0  0  0  0  0  0  0  0  0  0  0  0
   20.7100   19.5849   22.1202 C   0  0  0  0  0  0  0  0  0  0  0  0
   21.3776   20.4167   21.8579 H   0  0  0  0  0  0  0  0  0  0  0  0
   21.1549   19.0909   22.9947 H   0  0  0  0  0  0  0  0  0  0  0  0
   19.3171   20.1368   22.4868 C   0  0  0  0  0  0  0  0  0  0  0  0
   18.8751   20.6323   21.6112 H   0  0  0  0  0  0  0  0  0  0  0  0
   18.6490   19.3061   22.7534 H   0  0  0  0  0  0  0  0  0  0  0  0
   19.3903   21.1342   23.6604 C   0  0  0  0  0  0  0  0  0  0  0  0
   20.0277   21.9918   23.4081 H   0  0  0  0  0  0  0  0  0  0  0  0
   18.3908   21.5158   23.9065 H   0  0  0  0  0  0  0  0  0  0  0  0
   19.8005   20.6544   24.5587 H   0  0  0  0  0  0  0  0  0  0  0  0
  1  2  1  0  0  0  0
  1  3  2  0  0  0  0
  1  4  1  0  0  0  0
  4  5  1  0  0  0  0
  4  6  2  0  0  0  0
  6  7  1  0  0  0  0
  6  8  1  0  0  0  0
  8  9  1  0  0  0  0
  8 10  1  0  0  0  0
  8 11  1  0  0  0  0
 11 12  1  0  0  0  0
 11 13  1  0  0  0  0
 11 14  1  0  0  0  0
 14 15  1  0  0  0  0
 14 16  1  0  0  0  0
 14 17  1  0  0  0  0
M  END
> <VConfSearch Rank>
966

> <Conf_Id>
1

> <Delta U+W>
0.030

> <U+W>
-53.378

> <U>
9.048

> <W>
-62.426

> <W(PB)>
-64.506

> <W(SA)>
2.080

> <Valence>
2.652

> <Coulomb>
5.578

> <VdW>
0.818

> <VdW6>
-4.535

> <VdW12>
5.352

> <Bond>
0.063

> <Angle>
2.579

> <Pdih>
0.010

> <Idih>
0.000

> <Tether>
0.000

$$$$
VeraChem MOL file


 17 16  0  0  0  0  0  0  0  0999 V2000     
   23.0093   19.4753   22.6775 C   0  0  0  0  0  0  0  0  0  0  0  0
   22.9918   20.5992   23.1433 O   0  5  0  0  0  0  0  0  0  0  0  0
   23.9542   18.7216   22.8080 O   0  0  0  0  0  0  0  0  0  0  0  0
   21.8364   18.9800   21.9074 C   0  0  0  0  0  0  0  0  0  0  0  0
   21.9173   17.9679   21.5179 H   0  0  0  0  0  0  0  0  0  0  0  0
   20.7187   19.7083   21.6853 C   0  0  0  0  0  0  0  0  0  0  0  0
   20.6257   20.7222   22.0738 H   0  0  0  0  0  0  0  0  0  0  0  0
   19.5271   19.1961   20.9037 C   0  0  0  0  0  0  0  0  0  0  0  0
   19.8759   18.6281   20.0306 H   0  0  0  0  0  0  0  0  0  0  0  0
   18.9493   20.0421   20.5077 H   0  0  0  0  0  0  0  0  0  0  0  0
   18.6066   18.2969   21.7579 C   0  0  0  0  0  0  0  0  0  0  0  0
   17.8232   17.8717   21.1156 H   0  0  0  0  0  0  0  0  0  0  0  0
   19.1817   17.4488   22.1546 H   0  0  0  0  0  0  0  0  0  0  0  0
   17.9435   19.0649   22.9212 C   0  0  0  0  0  0  0  0  0  0  0  0
   17.3523   19.9107   22.5469 H   0  0  0  0  0  0  0  0  0  0  0  0
   17.2718   18.4053   23.4858 H   0  0  0  0  0  0  0  0  0  0  0  0
   18.6965   19.4547   23.6186 H   0  0  0  0  0  0  0  0  0  0  0  0
  1  2  1  0  0  0  0
  1  3  2  0  0  0  0
  1  4  1  0  0  0  0
  4  5  1  0  0  0  0
  4  6  2  0  0  0  0
  6  7  1  0  0  0  0
  6  8  1  0  0  0  0
  8  9  1  0  0  0  0
  8 10  1  0  0  0  0
  8 11  1  0  0  0  0
 11 12  1  0  0  0  0
 11 13  1  0  0  0  0
 11 14  1  0  0  0  0
 14 15  1  0  0  0  0
 14 16  1  0  0  0  0
 14 17  1  0  0  0  0
M  END
> <VConfSearch Rank>
967

> <Conf_Id>
3

> <Delta U+W>
0.531

> <U+W>
-52.878

> <U>
10.067

> <W>
-62.945

> <W(PB)>
-64.982

> <W(SA)>
2.037

> <Valence>
2.779

> <Coulomb>
6.474

> <VdW>
0.815

> <VdW6>
-5.088

> <VdW12>
5.902

> <Bond>
0.078

> <Angle>
2.651

> <Pdih>
0.050

> <Idih>
0.000

> <Tether>
0.000

$$$$
VeraChem MOL file


 17 16  0  0  0  0  0  0  0  0999 V2000     
   19.1243   17.8923   19.4434 C   0  0  0  0  0  0  0  0  0  0  0  0
   19.1944   18.3537   18.3209 O   0  5  0  0  0  0  0  0  0  0  0  0
   18.3626   16.9911   19.7404 O   0  0  0  0  0  0  0  0  0  0  0  0
   20.0213   18.4692   20.4810 C   0  0  0  0  0  0  0  0  0  0  0  0
   20.6764   19.2710   20.1484 H   0  0  0  0  0  0  0  0  0  0  0  0
   20.0481   18.0554   21.7685 C   0  0  0  0  0  0  0  0  0  0  0  0
   19.3925   17.2551   22.1109 H   0  0  0  0  0  0  0  0  0  0  0  0
   20.9605   18.6465   22.8232 C   0  0  0  0  0  0  0  0  0  0  0  0
   21.7799   19.2084   22.3544 H   0  0  0  0  0  0  0  0  0  0  0  0
   21.4330   17.8307   23.3864 H   0  0  0  0  0  0  0  0  0  0  0  0
   20.2013   19.5615   23.8089 C   0  0  0  0  0  0  0  0  0  0  0  0
   19.3799   19.0010   24.2763 H   0  0  0  0  0  0  0  0  0  0  0  0
   20.8811   19.8568   24.6200 H   0  0  0  0  0  0  0  0  0  0  0  0
   19.6450   20.8321   23.1315 C   0  0  0  0  0  0  0  0  0  0  0  0
   18.9108   20.5784   22.3558 H   0  0  0  0  0  0  0  0  0  0  0  0
   19.1470   21.4758   23.8681 H   0  0  0  0  0  0  0  0  0  0  0  0
   20.4508   21.4125   22.6637 H   0  0  0  0  0  0  0  0  0  0  0  0
  1  2  1  0  0  0  0
  1  3  2  0  0  0  0
  1  4  1  0  0  0  0
  4  5  1  0  0  0  0
  4  6  2  0  0  0  0
  6  7  1  0  0  0  0
  6  8  1  0  0  0  0
  8  9  1  0  0  0  0
  8 10  1  0  0  0  0
  8 11  1  0  0  0  0
 11 12  1  0  0  0  0
 11 13  1  0  0  0  0
 11 14  1  0  0  0  0
 14 15  1  0  0  0  0
 14 16  1  0  0  0  0
 14 17  1  0  0  0  0
M  END
> <VConfSearch Rank>
968

> <Conf_Id>
45

> <Delta U+W>
0.562

> <U+W>
-52.846

> <U>
10.243

> <W>
-63.089

> <W(PB)>
-65.116

> <W(SA)>
2.026

> <Valence>
2.822

> <Coulomb>
6.637

> <VdW>
0.785

> <VdW6>
-5.216

> <VdW12>
6.001

> <Bond>
0.080

> <Angle>
2.678

> <Pdih>
0.064

> <Idih>
0.000

> <Tether>
0.000

$$$$
VeraChem MOL file


 17 16  0  0  0  0  0  0  0  0999 V2000     
   20.8932   17.3786   24.6601 C   0  0  0  0  0  0  0  0  0  0  0  0
   21.9378   17.4077   25.2811 O   0  5  0  0  0  0  0  0  0  0  0  0
   20.0539   16.5123   24.8193 O   0  0  0  0  0  0  0  0  0  0  0  0
   20.6526   18.4615   23.6682 C   0  0  0  0  0  0  0  0  0  0  0  0
   21.4421   19.2038   23.5751 H   0  0  0  0  0  0  0  0  0  0  0  0
   19.5379   18.5533   22.9080 C   0  0  0  0  0  0  0  0  0  0  0  0
   18.7417   17.8137   22.9915 H   0  0  0  0  0  0  0  0  0  0  0  0
   19.3020   19.6566   21.9000 C   0  0  0  0  0  0  0  0  0  0  0  0
   19.6802   20.6106   22.2920 H   0  0  0  0  0  0  0  0  0  0  0  0
   18.2226   19.7885   21.7449 H   0  0  0  0  0  0  0  0  0  0  0  0
   19.9823   19.3413   20.5521 C   0  0  0  0  0  0  0  0  0  0  0  0
   21.0630   19.2131   20.7049 H   0  0  0  0  0  0  0  0  0  0  0  0
   19.6009   18.3877   20.1611 H   0  0  0  0  0  0  0  0  0  0  0  0
   19.7387   20.4569   19.5160 C   0  0  0  0  0  0  0  0  0  0  0  0
   18.6658   20.5843   19.3207 H   0  0  0  0  0  0  0  0  0  0  0  0
   20.1391   21.4160   19.8699 H   0  0  0  0  0  0  0  0  0  0  0  0
   20.2299   20.2151   18.5646 H   0  0  0  0  0  0  0  0  0  0  0  0
  1  2  1  0  0  0  0
  1  3  2  0  0  0  0
  1  4  1  0  0  0  0
  4  5  1  0  0  0  0
  4  6  2  0  0  0  0
  6  7  1  0  0  0  0
  6  8  1  0  0  0  0
  8  9  1  0  0  0  0
  8 10  1  0  0  0  0
  8 11  1  0  0  0  0
 11 12  1  0  0  0  0
 11 13  1  0  0  0  0
 11 14  1  0  0  0  0
 14 15  1  0  0  0  0
 14 16  1  0  0  0  0
 14 17  1  0  0  0  0
M  END
> <VConfSearch Rank>
969

> <Conf_Id>
36

> <Delta U+W>
0.000

> <U+W>
-53.409

> <U>
9.048

> <W>
-62.457

> <W(PB)>
-64.540

> <W(SA)>
2.084

> <Valence>
2.652

> <Coulomb>
5.578

> <VdW>
0.818

> <VdW6>
-4.534

> <VdW12>
5.352

> <Bond>
0.063

> <Angle>
2.579

> <Pdih>
0.010

> <Idih>
0.000

> <Tether>
0.000

$$$$
VeraChem MOL file


 17 16  0  0  0  0  0  0  0  0999 V2000     
   19.0890   18.6898   18.6951 C   0  0  0  0  0  0  0  0  0  0  0  0
   19.5858   19.6064   18.0679 O   0  5  0  0  0  0  0  0  0  0  0  0
   18.2556   17.9418   18.2222 O   0  0  0  0  0  0  0  0  0  0  0  0
   19.5048   18.4531   20.1041 C   0  0  0  0  0  0  0  0  0  0  0  0
   19.0227   17.6180   20.6073 H   0  0  0  0  0  0  0  0  0  0  0  0
   20.4192   19.2060   20.7568 C   0  0  0  0  0  0  0  0  0  0  0  0
   20.9068   20.0463   20.2628 H   0  0  0  0  0  0  0  0  0  0  0  0
   20.8351   18.9596   22.1905 C   0  0  0  0  0  0  0  0  0  0  0  0
   21.8431   19.3635   22.3557 H   0  0  0  0  0  0  0  0  0  0  0  0
   20.8955   17.8799   22.3837 H   0  0  0  0  0  0  0  0  0  0  0  0
   19.8492   19.6114   23.1815 C   0  0  0  0  0  0  0  0  0  0  0  0
   19.7921   20.6916   22.9876 H   0  0  0  0  0  0  0  0  0  0  0  0
   18.8409   19.2054   23.0203 H   0  0  0  0  0  0  0  0  0  0  0  0
   20.2712   19.3727   24.6452 C   0  0  0  0  0  0  0  0  0  0  0  0
   21.2642   19.7975   24.8422 H   0  0  0  0  0  0  0  0  0  0  0  0
   19.5585   19.8433   25.3349 H   0  0  0  0  0  0  0  0  0  0  0  0
   20.3058   18.2994   24.8740 H   0  0  0  0  0  0  0  0  0  0  0  0
  1  2  1  0  0  0  0
  1  3  2  0  0  0  0
  1  4  1  0  0  0  0
  4  5  1  0  0  0  0
  4  6  2  0  0  0  0
  6  7  1  0  0  0  0
  6  8  1  0  0  0  0
  8  9  1  0  0  0  0
  8 10  1  0  0  0  0
  8 11  1  0  0  0  0
 11 12  1  0  0  0  0
 11 13  1  0  0  0  0
 11 14  1  0  0  0  0
 14 15  1  0  0  0  0
 14 16  1  0  0  0  0
 14 17  1  0  0  0  0
M  END
> <VConfSearch Rank>
970

> <Conf_Id>
1

> <Delta U+W>
0.030

> <U+W>
-53.378

> <U>
9.048

> <W>
-62.426

> <W(PB)>
-64.506

> <W(SA)>
2.080

> <Valence>
2.652

> <Coulomb>
5.578

> <VdW>
0.818

> <VdW6>
-4.535

> <VdW12>
5.352

> <Bond>
0.063

> <Angle>
2.579

> <Pdih>
0.010

> <Idih>
0.000

> <Tether>
0.000

$$$$
VeraChem MOL file


 17 16  0  0  0  0  0  0  0  0999 V2000     
   21.0552   21.6618   20.7101 C   0  0  0  0  0  0  0  0  0  0  0  0
   20.8947   22.4597   21.6144 O   0  5  0  0  0  0  0  0  0  0  0  0
   21.7537   21.8930   19.7423 O   0  0  0  0  0  0  0  0  0  0  0  0
   20.3747   20.3397   20.7664 C   0  0  0  0  0  0  0  0  0  0  0  0
   20.5597   19.6744   19.9263 H   0  0  0  0  0  0  0  0  0  0  0  0
   19.5711   19.9484   21.7814 C   0  0  0  0  0  0  0  0  0  0  0  0
   19.3817   20.6058   22.6297 H   0  0  0  0  0  0  0  0  0  0  0  0
   18.8849   18.5996   21.8338 C   0  0  0  0  0  0  0  0  0  0  0  0
   18.5092   18.3385   20.8351 H   0  0  0  0  0  0  0  0  0  0  0  0
   18.0041   18.6545   22.4875 H   0  0  0  0  0  0  0  0  0  0  0  0
   19.8266   17.4800   22.3291 C   0  0  0  0  0  0  0  0  0  0  0  0
   19.3104   16.5136   22.2461 H   0  0  0  0  0  0  0  0  0  0  0  0
   20.7084   17.4218   21.6761 H   0  0  0  0  0  0  0  0  0  0  0  0
   20.2753   17.6884   23.7913 C   0  0  0  0  0  0  0  0  0  0  0  0
   19.4095   17.7370   24.4646 H   0  0  0  0  0  0  0  0  0  0  0  0
   20.9146   16.8591   24.1206 H   0  0  0  0  0  0  0  0  0  0  0  0
   20.8478   18.6186   23.9012 H   0  0  0  0  0  0  0  0  0  0  0  0
  1  2  1  0  0  0  0
  1  3  2  0  0  0  0
  1  4  1  0  0  0  0
  4  5  1  0  0  0  0
  4  6  2  0  0  0  0
  6  7  1  0  0  0  0
  6  8  1  0  0  0  0
  8  9  1  0  0  0  0
  8 10  1  0  0  0  0
  8 11  1  0  0  0  0
 11 12  1  0  0  0  0
 11 13  1  0  0  0  0
 11 14  1  0  0  0  0
 14 15  1  0  0  0  0
 14 16  1  0  0  0  0
 14 17  1  0  0  0  0
M  END
> <VConfSearch Rank>
971

> <Conf_Id>
3

> <Delta U+W>
0.531

> <U+W>
-52.878

> <U>
10.067

> <W>
-62.945

> <W(PB)>
-64.982

> <W(SA)>
2.037

> <Valence>
2.779

> <Coulomb>
6.474

> <VdW>
0.815

> <VdW6>
-5.088

> <VdW12>
5.902

> <Bond>
0.078

> <Angle>
2.651

> <Pdih>
0.050

> <Idih>
0.000

> <Tether>
0.000

$$$$
VeraChem MOL file


 17 16  0  0  0  0  0  0  0  0999 V2000     
   18.2793   21.2893   20.8762 C   0  0  0  0  0  0  0  0  0  0  0  0
   18.6145   22.3574   20.4023 O   0  5  0  0  0  0  0  0  0  0  0  0
   17.1506   21.0681   21.2732 O   0  0  0  0  0  0  0  0  0  0  0  0
   19.3113   20.2208   20.9608 C   0  0  0  0  0  0  0  0  0  0  0  0
   20.2985   20.4848   20.5886 H   0  0  0  0  0  0  0  0  0  0  0  0
   19.0797   18.9877   21.4663 C   0  0  0  0  0  0  0  0  0  0  0  0
   18.0945   18.7160   21.8447 H   0  0  0  0  0  0  0  0  0  0  0  0
   20.1331   17.9028   21.5536 C   0  0  0  0  0  0  0  0  0  0  0  0
   20.9808   18.1334   20.8941 H   0  0  0  0  0  0  0  0  0  0  0  0
   19.7077   16.9597   21.1855 H   0  0  0  0  0  0  0  0  0  0  0  0
   20.6407   17.6935   22.9971 C   0  0  0  0  0  0  0  0  0  0  0  0
   19.7930   17.4655   23.6581 H   0  0  0  0  0  0  0  0  0  0  0  0
   21.3020   16.8164   23.0209 H   0  0  0  0  0  0  0  0  0  0  0  0
   21.4091   18.9175   23.5398 C   0  0  0  0  0  0  0  0  0  0  0  0
   20.7602   19.8014   23.5918 H   0  0  0  0  0  0  0  0  0  0  0  0
   21.7877   18.7184   24.5507 H   0  0  0  0  0  0  0  0  0  0  0  0
   22.2662   19.1590   22.8980 H   0  0  0  0  0  0  0  0  0  0  0  0
  1  2  1  0  0  0  0
  1  3  2  0  0  0  0
  1  4  1  0  0  0  0
  4  5  1  0  0  0  0
  4  6  2  0  0  0  0
  6  7  1  0  0  0  0
  6  8  1  0  0  0  0
  8  9  1  0  0  0  0
  8 10  1  0  0  0  0
  8 11  1  0  0  0  0
 11 12  1  0  0  0  0
 11 13  1  0  0  0  0
 11 14  1  0  0  0  0
 14 15  1  0  0  0  0
 14 16  1  0  0  0  0
 14 17  1  0  0  0  0
M  END
> <VConfSearch Rank>
972

> <Conf_Id>
45

> <Delta U+W>
0.562

> <U+W>
-52.846

> <U>
10.243

> <W>
-63.089

> <W(PB)>
-65.116

> <W(SA)>
2.026

> <Valence>
2.822

> <Coulomb>
6.637

> <VdW>
0.785

> <VdW6>
-5.216

> <VdW12>
6.001

> <Bond>
0.080

> <Angle>
2.678

> <Pdih>
0.064

> <Idih>
0.000

> <Tether>
0.000

$$$$
VeraChem MOL file


 17 16  0  0  0  0  0  0  0  0999 V2000     
   16.7347   18.3226   22.2721 C   0  0  0  0  0  0  0  0  0  0  0  0
   15.8716   18.2130   21.4232 O   0  5  0  0  0  0  0  0  0  0  0  0
   16.4878   18.3766   23.4622 O   0  0  0  0  0  0  0  0  0  0  0  0
   18.1479   18.3904   21.8110 C   0  0  0  0  0  0  0  0  0  0  0  0
   18.2992   18.3367   20.7353 H   0  0  0  0  0  0  0  0  0  0  0  0
   19.2071   18.5135   22.6428 C   0  0  0  0  0  0  0  0  0  0  0  0
   19.0667   18.5705   23.7221 H   0  0  0  0  0  0  0  0  0  0  0  0
   20.6411   18.5838   22.1655 C   0  0  0  0  0  0  0  0  0  0  0  0
   20.7890   17.9001   21.3185 H   0  0  0  0  0  0  0  0  0  0  0  0
   21.3120   18.2409   22.9647 H   0  0  0  0  0  0  0  0  0  0  0  0
   21.0251   20.0186   21.7495 C   0  0  0  0  0  0  0  0  0  0  0  0
   20.3574   20.3617   20.9470 H   0  0  0  0  0  0  0  0  0  0  0  0
   20.8783   20.7002   22.5989 H   0  0  0  0  0  0  0  0  0  0  0  0
   22.4885   20.1007   21.2706 C   0  0  0  0  0  0  0  0  0  0  0  0
   23.1801   19.7929   22.0658 H   0  0  0  0  0  0  0  0  0  0  0  0
   22.6543   19.4508   20.4013 H   0  0  0  0  0  0  0  0  0  0  0  0
   22.7429   21.1280   20.9791 H   0  0  0  0  0  0  0  0  0  0  0  0
  1  2  1  0  0  0  0
  1  3  2  0  0  0  0
  1  4  1  0  0  0  0
  4  5  1  0  0  0  0
  4  6  2  0  0  0  0
  6  7  1  0  0  0  0
  6  8  1  0  0  0  0
  8  9  1  0  0  0  0
  8 10  1  0  0  0  0
  8 11  1  0  0  0  0
 11 12  1  0  0  0  0
 11 13  1  0  0  0  0
 11 14  1  0  0  0  0
 14 15  1  0  0  0  0
 14 16  1  0  0  0  0
 14 17  1  0  0  0  0
M  END
> <VConfSearch Rank>
973

> <Conf_Id>
36

> <Delta U+W>
0.000

> <U+W>
-53.409

> <U>
9.048

> <W>
-62.457

> <W(PB)>
-64.540

> <W(SA)>
2.084

> <Valence>
2.652

> <Coulomb>
5.578

> <VdW>
0.818

> <VdW6>
-4.534

> <VdW12>
5.352

> <Bond>
0.063

> <Angle>
2.579

> <Pdih>
0.010

> <Idih>
0.000

> <Tether>
0.000

$$$$
VeraChem MOL file


 17 16  0  0  0  0  0  0  0  0999 V2000     
   17.6909   19.1235   24.3589 C   0  0  0  0  0  0  0  0  0  0  0  0
   17.0903   20.1772   24.2616 O   0  5  0  0  0  0  0  0  0  0  0  0
   17.5671   18.3787   25.3116 O   0  0  0  0  0  0  0  0  0  0  0  0
   18.6224   18.7059   23.2763 C   0  0  0  0  0  0  0  0  0  0  0  0
   19.1269   17.7540   23.4253 H   0  0  0  0  0  0  0  0  0  0  0  0
   18.8578   19.4349   22.1617 C   0  0  0  0  0  0  0  0  0  0  0  0
   18.3594   20.3910   22.0033 H   0  0  0  0  0  0  0  0  0  0  0  0
   19.8082   19.0038   21.0662 C   0  0  0  0  0  0  0  0  0  0  0  0
   19.5183   19.4794   20.1196 H   0  0  0  0  0  0  0  0  0  0  0  0
   19.7313   17.9195   20.9074 H   0  0  0  0  0  0  0  0  0  0  0  0
   21.2652   19.3779   21.4069 C   0  0  0  0  0  0  0  0  0  0  0  0
   21.3400   20.4631   21.5630 H   0  0  0  0  0  0  0  0  0  0  0  0
   21.5582   18.8994   22.3517 H   0  0  0  0  0  0  0  0  0  0  0  0
   22.2393   18.9501   20.2907 C   0  0  0  0  0  0  0  0  0  0  0  0
   21.9878   19.4396   19.3407 H   0  0  0  0  0  0  0  0  0  0  0  0
   23.2699   19.2243   20.5508 H   0  0  0  0  0  0  0  0  0  0  0  0
   22.2065   17.8636   20.1360 H   0  0  0  0  0  0  0  0  0  0  0  0
  1  2  1  0  0  0  0
  1  3  2  0  0  0  0
  1  4  1  0  0  0  0
  4  5  1  0  0  0  0
  4  6  2  0  0  0  0
  6  7  1  0  0  0  0
  6  8  1  0  0  0  0
  8  9  1  0  0  0  0
  8 10  1  0  0  0  0
  8 11  1  0  0  0  0
 11 12  1  0  0  0  0
 11 13  1  0  0  0  0
 11 14  1  0  0  0  0
 14 15  1  0  0  0  0
 14 16  1  0  0  0  0
 14 17  1  0  0  0  0
M  END
> <VConfSearch Rank>
974

> <Conf_Id>
1

> <Delta U+W>
0.030

> <U+W>
-53.378

> <U>
9.048

> <W>
-62.426

> <W(PB)>
-64.506

> <W(SA)>
2.080

> <Valence>
2.652

> <Coulomb>
5.578

> <VdW>
0.818

> <VdW6>
-4.535

> <VdW12>
5.352

> <Bond>
0.063

> <Angle>
2.579

> <Pdih>
0.010

> <Idih>
0.000

> <Tether>
0.000

$$$$
VeraChem MOL file


 17 16  0  0  0  0  0  0  0  0999 V2000     
   21.1113   21.1883   20.0780 C   0  0  0  0  0  0  0  0  0  0  0  0
   20.6773   22.2078   20.5806 O   0  5  0  0  0  0  0  0  0  0  0  0
   21.9923   21.1887   19.2404 O   0  0  0  0  0  0  0  0  0  0  0  0
   20.5529   19.8712   20.4875 C   0  0  0  0  0  0  0  0  0  0  0  0
   20.9843   19.0003   19.9994 H   0  0  0  0  0  0  0  0  0  0  0  0
   19.5730   19.7212   21.4073 C   0  0  0  0  0  0  0  0  0  0  0  0
   19.1361   20.5867   21.9050 H   0  0  0  0  0  0  0  0  0  0  0  0
   19.0124   18.3770   21.8219 C   0  0  0  0  0  0  0  0  0  0  0  0
   18.9023   17.7352   20.9373 H   0  0  0  0  0  0  0  0  0  0  0  0
   18.0027   18.5053   22.2346 H   0  0  0  0  0  0  0  0  0  0  0  0
   19.9067   17.6616   22.8582 C   0  0  0  0  0  0  0  0  0  0  0  0
   19.5092   16.6537   23.0408 H   0  0  0  0  0  0  0  0  0  0  0  0
   20.9175   17.5306   22.4476 H   0  0  0  0  0  0  0  0  0  0  0  0
   19.9847   18.4235   24.1984 C   0  0  0  0  0  0  0  0  0  0  0  0
   18.9857   18.5551   24.6340 H   0  0  0  0  0  0  0  0  0  0  0  0
   20.5996   17.8714   24.9209 H   0  0  0  0  0  0  0  0  0  0  0  0
   20.4337   19.4163   24.0640 H   0  0  0  0  0  0  0  0  0  0  0  0
  1  2  1  0  0  0  0
  1  3  2  0  0  0  0
  1  4  1  0  0  0  0
  4  5  1  0  0  0  0
  4  6  2  0  0  0  0
  6  7  1  0  0  0  0
  6  8  1  0  0  0  0
  8  9  1  0  0  0  0
  8 10  1  0  0  0  0
  8 11  1  0  0  0  0
 11 12  1  0  0  0  0
 11 13  1  0  0  0  0
 11 14  1  0  0  0  0
 14 15  1  0  0  0  0
 14 16  1  0  0  0  0
 14 17  1  0  0  0  0
M  END
> <VConfSearch Rank>
975

> <Conf_Id>
3

> <Delta U+W>
0.531

> <U+W>
-52.878

> <U>
10.067

> <W>
-62.945

> <W(PB)>
-64.982

> <W(SA)>
2.037

> <Valence>
2.779

> <Coulomb>
6.474

> <VdW>
0.815

> <VdW6>
-5.088

> <VdW12>
5.902

> <Bond>
0.078

> <Angle>
2.651

> <Pdih>
0.050

> <Idih>
0.000

> <Tether>
0.000

$$$$
VeraChem MOL file


 17 16  0  0  0  0  0  0  0  0999 V2000     
   19.8930   21.8761   23.2605 C   0  0  0  0  0  0  0  0  0  0  0  0
   19.3586   22.2676   24.2798 O   0  5  0  0  0  0  0  0  0  0  0  0
   20.1946   22.6193   22.3456 O   0  0  0  0  0  0  0  0  0  0  0  0
   20.1835   20.4208   23.1521 C   0  0  0  0  0  0  0  0  0  0  0  0
   19.8883   19.8138   24.0048 H   0  0  0  0  0  0  0  0  0  0  0  0
   20.7710   19.8477   22.0769 C   0  0  0  0  0  0  0  0  0  0  0  0
   21.0665   20.4479   21.2168 H   0  0  0  0  0  0  0  0  0  0  0  0
   21.0629   18.3654   21.9684 C   0  0  0  0  0  0  0  0  0  0  0  0
   21.0262   17.8907   22.9584 H   0  0  0  0  0  0  0  0  0  0  0  0
   22.0891   18.2281   21.6020 H   0  0  0  0  0  0  0  0  0  0  0  0
   20.0887   17.6447   21.0109 C   0  0  0  0  0  0  0  0  0  0  0  0
   20.1229   18.1205   20.0210 H   0  0  0  0  0  0  0  0  0  0  0  0
   20.4239   16.6076   20.8723 H   0  0  0  0  0  0  0  0  0  0  0  0
   18.6368   17.6380   21.5352 C   0  0  0  0  0  0  0  0  0  0  0  0
   18.2437   18.6590   21.6257 H   0  0  0  0  0  0  0  0  0  0  0  0
   17.9815   17.0848   20.8500 H   0  0  0  0  0  0  0  0  0  0  0  0
   18.5778   17.1596   22.5214 H   0  0  0  0  0  0  0  0  0  0  0  0
  1  2  1  0  0  0  0
  1  3  2  0  0  0  0
  1  4  1  0  0  0  0
  4  5  1  0  0  0  0
  4  6  2  0  0  0  0
  6  7  1  0  0  0  0
  6  8  1  0  0  0  0
  8  9  1  0  0  0  0
  8 10  1  0  0  0  0
  8 11  1  0  0  0  0
 11 12  1  0  0  0  0
 11 13  1  0  0  0  0
 11 14  1  0  0  0  0
 14 15  1  0  0  0  0
 14 16  1  0  0  0  0
 14 17  1  0  0  0  0
M  END
> <VConfSearch Rank>
976

> <Conf_Id>
45

> <Delta U+W>
0.562

> <U+W>
-52.846

> <U>
10.243

> <W>
-63.089

> <W(PB)>
-65.116

> <W(SA)>
2.026

> <Valence>
2.822

> <Coulomb>
6.637

> <VdW>
0.785

> <VdW6>
-5.216

> <VdW12>
6.001

> <Bond>
0.080

> <Angle>
2.678

> <Pdih>
0.064

> <Idih>
0.000

> <Tether>
0.000

$$$$
VeraChem MOL file


 17 16  0  0  0  0  0  0  0  0999 V2000     
   19.5163   15.8962   21.0347 C   0  0  0  0  0  0  0  0  0  0  0  0
   20.1776   15.1946   20.2943 O   0  5  0  0  0  0  0  0  0  0  0  0
   18.4037   15.5873   21.4183 O   0  0  0  0  0  0  0  0  0  0  0  0
   20.1157   17.1836   21.4790 C   0  0  0  0  0  0  0  0  0  0  0  0
   21.1121   17.3990   21.1000 H   0  0  0  0  0  0  0  0  0  0  0  0
   19.4944   18.0608   22.2997 C   0  0  0  0  0  0  0  0  0  0  0  0
   18.4950   17.8561   22.6833 H   0  0  0  0  0  0  0  0  0  0  0  0
   20.1102   19.3691   22.7451 C   0  0  0  0  0  0  0  0  0  0  0  0
   21.1842   19.2342   22.9322 H   0  0  0  0  0  0  0  0  0  0  0  0
   19.6634   19.6800   23.6991 H   0  0  0  0  0  0  0  0  0  0  0  0
   19.9004   20.4763   21.6919 C   0  0  0  0  0  0  0  0  0  0  0  0
   20.3505   20.1686   20.7378 H   0  0  0  0  0  0  0  0  0  0  0  0
   18.8253   20.6107   21.5079 H   0  0  0  0  0  0  0  0  0  0  0  0
   20.5170   21.8157   22.1425 C   0  0  0  0  0  0  0  0  0  0  0  0
   20.0614   22.1627   23.0792 H   0  0  0  0  0  0  0  0  0  0  0  0
   21.5985   21.7158   22.3035 H   0  0  0  0  0  0  0  0  0  0  0  0
   20.3580   22.5903   21.3811 H   0  0  0  0  0  0  0  0  0  0  0  0
  1  2  1  0  0  0  0
  1  3  2  0  0  0  0
  1  4  1  0  0  0  0
  4  5  1  0  0  0  0
  4  6  2  0  0  0  0
  6  7  1  0  0  0  0
  6  8  1  0  0  0  0
  8  9  1  0  0  0  0
  8 10  1  0  0  0  0
  8 11  1  0  0  0  0
 11 12  1  0  0  0  0
 11 13  1  0  0  0  0
 11 14  1  0  0  0  0
 14 15  1  0  0  0  0
 14 16  1  0  0  0  0
 14 17  1  0  0  0  0
M  END
> <VConfSearch Rank>
977

> <Conf_Id>
36

> <Delta U+W>
0.000

> <U+W>
-53.409

> <U>
9.048

> <W>
-62.457

> <W(PB)>
-64.540

> <W(SA)>
2.084

> <Valence>
2.652

> <Coulomb>
5.578

> <VdW>
0.818

> <VdW6>
-4.534

> <VdW12>
5.352

> <Bond>
0.063

> <Angle>
2.579

> <Pdih>
0.010

> <Idih>
0.000

> <Tether>
0.000

$$$$
VeraChem MOL file


 17 16  0  0  0  0  0  0  0  0999 V2000     
   17.6765   17.7981   23.9717 C   0  0  0  0  0  0  0  0  0  0  0  0
   17.6726   16.5953   23.7882 O   0  5  0  0  0  0  0  0  0  0  0  0
   16.8239   18.3691   24.6234 O   0  0  0  0  0  0  0  0  0  0  0  0
   18.7630   18.6277   23.3839 C   0  0  0  0  0  0  0  0  0  0  0  0
   18.7073   19.6950   23.5858 H   0  0  0  0  0  0  0  0  0  0  0  0
   19.7736   18.1271   22.6375 C   0  0  0  0  0  0  0  0  0  0  0  0
   19.8378   17.0597   22.4272 H   0  0  0  0  0  0  0  0  0  0  0  0
   20.8737   18.9781   22.0417 C   0  0  0  0  0  0  0  0  0  0  0  0
   21.7684   18.3619   21.8796 H   0  0  0  0  0  0  0  0  0  0  0  0
   21.1621   19.7679   22.7486 H   0  0  0  0  0  0  0  0  0  0  0  0
   20.4337   19.6106   20.7055 C   0  0  0  0  0  0  0  0  0  0  0  0
   20.1478   18.8186   19.9995 H   0  0  0  0  0  0  0  0  0  0  0  0
   19.5409   20.2308   20.8667 H   0  0  0  0  0  0  0  0  0  0  0  0
   21.5529   20.4722   20.0871 C   0  0  0  0  0  0  0  0  0  0  0  0
   22.4478   19.8688   19.8862 H   0  0  0  0  0  0  0  0  0  0  0  0
   21.2217   20.9134   19.1380 H   0  0  0  0  0  0  0  0  0  0  0  0
   21.8359   21.2914   20.7611 H   0  0  0  0  0  0  0  0  0  0  0  0
  1  2  1  0  0  0  0
  1  3  2  0  0  0  0
  1  4  1  0  0  0  0
  4  5  1  0  0  0  0
  4  6  2  0  0  0  0
  6  7  1  0  0  0  0
  6  8  1  0  0  0  0
  8  9  1  0  0  0  0
  8 10  1  0  0  0  0
  8 11  1  0  0  0  0
 11 12  1  0  0  0  0
 11 13  1  0  0  0  0
 11 14  1  0  0  0  0
 14 15  1  0  0  0  0
 14 16  1  0  0  0  0
 14 17  1  0  0  0  0
M  END
> <VConfSearch Rank>
978

> <Conf_Id>
1

> <Delta U+W>
0.030

> <U+W>
-53.378

> <U>
9.048

> <W>
-62.426

> <W(PB)>
-64.506

> <W(SA)>
2.080

> <Valence>
2.652

> <Coulomb>
5.578

> <VdW>
0.818

> <VdW6>
-4.535

> <VdW12>
5.352

> <Bond>
0.063

> <Angle>
2.579

> <Pdih>
0.010

> <Idih>
0.000

> <Tether>
0.000

$$$$
VeraChem MOL file


 17 16  0  0  0  0  0  0  0  0999 V2000     
   18.4692   16.4252   21.9250 C   0  0  0  0  0  0  0  0  0  0  0  0
   19.3481   15.6792   21.5357 O   0  5  0  0  0  0  0  0  0  0  0  0
   17.4298   16.0233   22.4108 O   0  0  0  0  0  0  0  0  0  0  0  0
   18.6495   17.8976   21.8090 C   0  0  0  0  0  0  0  0  0  0  0  0
   17.8262   18.5070   22.1746 H   0  0  0  0  0  0  0  0  0  0  0  0
   19.7530   18.4833   21.2912 C   0  0  0  0  0  0  0  0  0  0  0  0
   20.5852   17.8824   20.9251 H   0  0  0  0  0  0  0  0  0  0  0  0
   19.9311   19.9829   21.1799 C   0  0  0  0  0  0  0  0  0  0  0  0
   18.9856   20.4435   20.8630 H   0  0  0  0  0  0  0  0  0  0  0  0
   20.6628   20.2142   20.3942 H   0  0  0  0  0  0  0  0  0  0  0  0
   20.3840   20.6213   22.5114 C   0  0  0  0  0  0  0  0  0  0  0  0
   20.3941   21.7144   22.4006 H   0  0  0  0  0  0  0  0  0  0  0  0
   19.6531   20.3926   23.2994 H   0  0  0  0  0  0  0  0  0  0  0  0
   21.7858   20.1456   22.9488 C   0  0  0  0  0  0  0  0  0  0  0  0
   22.5358   20.3755   22.1808 H   0  0  0  0  0  0  0  0  0  0  0  0
   22.0895   20.6434   23.8788 H   0  0  0  0  0  0  0  0  0  0  0  0
   21.7987   19.0625   23.1273 H   0  0  0  0  0  0  0  0  0  0  0  0
  1  2  1  0  0  0  0
  1  3  2  0  0  0  0
  1  4  1  0  0  0  0
  4  5  1  0  0  0  0
  4  6  2  0  0  0  0
  6  7  1  0  0  0  0
  6  8  1  0  0  0  0
  8  9  1  0  0  0  0
  8 10  1  0  0  0  0
  8 11  1  0  0  0  0
 11 12  1  0  0  0  0
 11 13  1  0  0  0  0
 11 14  1  0  0  0  0
 14 15  1  0  0  0  0
 14 16  1  0  0  0  0
 14 17  1  0  0  0  0
M  END
> <VConfSearch Rank>
979

> <Conf_Id>
3

> <Delta U+W>
0.531

> <U+W>
-52.878

> <U>
10.067

> <W>
-62.945

> <W(PB)>
-64.982

> <W(SA)>
2.037

> <Valence>
2.779

> <Coulomb>
6.474

> <VdW>
0.815

> <VdW6>
-5.088

> <VdW12>
5.902

> <Bond>
0.078

> <Angle>
2.651

> <Pdih>
0.050

> <Idih>
0.000

> <Tether>
0.000

$$$$
VeraChem MOL file


 17 16  0  0  0  0  0  0  0  0999 V2000     
   19.9091   18.1147   24.9303 C   0  0  0  0  0  0  0  0  0  0  0  0
   19.8054   18.7447   25.9648 O   0  5  0  0  0  0  0  0  0  0  0  0
   20.3639   16.9870   24.8866 O   0  0  0  0  0  0  0  0  0  0  0  0
   19.4501   18.7716   23.6766 C   0  0  0  0  0  0  0  0  0  0  0  0
   19.0546   19.7787   23.7866 H   0  0  0  0  0  0  0  0  0  0  0  0
   19.5083   18.1906   22.4565 C   0  0  0  0  0  0  0  0  0  0  0  0
   19.9064   17.1833   22.3368 H   0  0  0  0  0  0  0  0  0  0  0  0
   19.0427   18.8630   21.1815 C   0  0  0  0  0  0  0  0  0  0  0  0
   18.3912   19.7172   21.4109 H   0  0  0  0  0  0  0  0  0  0  0  0
   18.4287   18.1564   20.6073 H   0  0  0  0  0  0  0  0  0  0  0  0
   20.2222   19.3315   20.3016 C   0  0  0  0  0  0  0  0  0  0  0  0
   20.8759   18.4781   20.0739 H   0  0  0  0  0  0  0  0  0  0  0  0
   19.8311   19.6924   19.3403 H   0  0  0  0  0  0  0  0  0  0  0  0
   21.0467   20.4564   20.9632 C   0  0  0  0  0  0  0  0  0  0  0  0
   21.5082   20.1121   21.8978 H   0  0  0  0  0  0  0  0  0  0  0  0
   21.8504   20.7905   20.2944 H   0  0  0  0  0  0  0  0  0  0  0  0
   20.4140   21.3237   21.1928 H   0  0  0  0  0  0  0  0  0  0  0  0
  1  2  1  0  0  0  0
  1  3  2  0  0  0  0
  1  4  1  0  0  0  0
  4  5  1  0  0  0  0
  4  6  2  0  0  0  0
  6  7  1  0  0  0  0
  6  8  1  0  0  0  0
  8  9  1  0  0  0  0
  8 10  1  0  0  0  0
  8 11  1  0  0  0  0
 11 12  1  0  0  0  0
 11 13  1  0  0  0  0
 11 14  1  0  0  0  0
 14 15  1  0  0  0  0
 14 16  1  0  0  0  0
 14 17  1  0  0  0  0
M  END
> <VConfSearch Rank>
980

> <Conf_Id>
45

> <Delta U+W>
0.562

> <U+W>
-52.846

> <U>
10.243

> <W>
-63.089

> <W(PB)>
-65.116

> <W(SA)>
2.026

> <Valence>
2.822

> <Coulomb>
6.637

> <VdW>
0.785

> <VdW6>
-5.216

> <VdW12>
6.001

> <Bond>
0.080

> <Angle>
2.678

> <Pdih>
0.064

> <Idih>
0.000

> <Tether>
0.000

$$$$
VeraChem MOL file


 17 16  0  0  0  0  0  0  0  0999 V2000     
   18.7704   18.6770   25.0262 C   0  0  0  0  0  0  0  0  0  0  0  0
   19.1541   17.9299   25.9049 O   0  5  0  0  0  0  0  0  0  0  0  0
   17.6978   19.2499   25.0678 O   0  0  0  0  0  0  0  0  0  0  0  0
   19.6700   18.8852   23.8593 C   0  0  0  0  0  0  0  0  0  0  0  0
   20.6130   18.3440   23.8845 H   0  0  0  0  0  0  0  0  0  0  0  0
   19.3717   19.6861   22.8111 C   0  0  0  0  0  0  0  0  0  0  0  0
   18.4286   20.2311   22.7745 H   0  0  0  0  0  0  0  0  0  0  0  0
   20.2913   19.8907   21.6272 C   0  0  0  0  0  0  0  0  0  0  0  0
   21.3356   19.9333   21.9657 H   0  0  0  0  0  0  0  0  0  0  0  0
   20.0755   20.8595   21.1569 H   0  0  0  0  0  0  0  0  0  0  0  0
   20.1270   18.7640   20.5867 C   0  0  0  0  0  0  0  0  0  0  0  0
   20.3467   17.7942   21.0546 H   0  0  0  0  0  0  0  0  0  0  0  0
   19.0823   18.7247   20.2482 H   0  0  0  0  0  0  0  0  0  0  0  0
   21.0543   18.9702   19.3722 C   0  0  0  0  0  0  0  0  0  0  0  0
   20.8340   19.9194   18.8662 H   0  0  0  0  0  0  0  0  0  0  0  0
   22.1081   18.9822   19.6801 H   0  0  0  0  0  0  0  0  0  0  0  0
   20.9234   18.1595   18.6436 H   0  0  0  0  0  0  0  0  0  0  0  0
  1  2  1  0  0  0  0
  1  3  2  0  0  0  0
  1  4  1  0  0  0  0
  4  5  1  0  0  0  0
  4  6  2  0  0  0  0
  6  7  1  0  0  0  0
  6  8  1  0  0  0  0
  8  9  1  0  0  0  0
  8 10  1  0  0  0  0
  8 11  1  0  0  0  0
 11 12  1  0  0  0  0
 11 13  1  0  0  0  0
 11 14  1  0  0  0  0
 14 15  1  0  0  0  0
 14 16  1  0  0  0  0
 14 17  1  0  0  0  0
M  END
> <VConfSearch Rank>
981

> <Conf_Id>
36

> <Delta U+W>
0.000

> <U+W>
-53.409

> <U>
9.048

> <W>
-62.457

> <W(PB)>
-64.540

> <W(SA)>
2.084

> <Valence>
2.652

> <Coulomb>
5.578

> <VdW>
0.818

> <VdW6>
-4.534

> <VdW12>
5.352

> <Bond>
0.063

> <Angle>
2.579

> <Pdih>
0.010

> <Idih>
0.000

> <Tether>
0.000

$$$$
VeraChem MOL file


 17 16  0  0  0  0  0  0  0  0999 V2000     
   19.3060   21.8007   20.0305 C   0  0  0  0  0  0  0  0  0  0  0  0
   19.5966   22.7779   20.6947 O   0  5  0  0  0  0  0  0  0  0  0  0
   18.6827   21.8719   18.9893 O   0  0  0  0  0  0  0  0  0  0  0  0
   19.7220   20.4485   20.4918 C   0  0  0  0  0  0  0  0  0  0  0  0
   19.4306   19.6185   19.8522 H   0  0  0  0  0  0  0  0  0  0  0  0
   20.4174   20.2209   21.6292 C   0  0  0  0  0  0  0  0  0  0  0  0
   20.7125   21.0451   22.2784 H   0  0  0  0  0  0  0  0  0  0  0  0
   20.8349   18.8423   22.0920 C   0  0  0  0  0  0  0  0  0  0  0  0
   21.7168   18.9238   22.7416 H   0  0  0  0  0  0  0  0  0  0  0  0
   21.1372   18.2322   21.2299 H   0  0  0  0  0  0  0  0  0  0  0  0
   19.6953   18.1366   22.8551 C   0  0  0  0  0  0  0  0  0  0  0  0
   19.3962   18.7476   23.7181 H   0  0  0  0  0  0  0  0  0  0  0  0
   18.8134   18.0506   22.2051 H   0  0  0  0  0  0  0  0  0  0  0  0
   20.1161   16.7342   23.3383 C   0  0  0  0  0  0  0  0  0  0  0  0
   20.9777   16.7942   24.0162 H   0  0  0  0  0  0  0  0  0  0  0  0
   19.2932   16.2482   23.8785 H   0  0  0  0  0  0  0  0  0  0  0  0
   20.3906   16.0926   22.4907 H   0  0  0  0  0  0  0  0  0  0  0  0
  1  2  1  0  0  0  0
  1  3  2  0  0  0  0
  1  4  1  0  0  0  0
  4  5  1  0  0  0  0
  4  6  2  0  0  0  0
  6  7  1  0  0  0  0
  6  8  1  0  0  0  0
  8  9  1  0  0  0  0
  8 10  1  0  0  0  0
  8 11  1  0  0  0  0
 11 12  1  0  0  0  0
 11 13  1  0  0  0  0
 11 14  1  0  0  0  0
 14 15  1  0  0  0  0
 14 16  1  0  0  0  0
 14 17  1  0  0  0  0
M  END
> <VConfSearch Rank>
982

> <Conf_Id>
1

> <Delta U+W>
0.030

> <U+W>
-53.378

> <U>
9.048

> <W>
-62.426

> <W(PB)>
-64.506

> <W(SA)>
2.080

> <Valence>
2.652

> <Coulomb>
5.578

> <VdW>
0.818

> <VdW6>
-4.535

> <VdW12>
5.352

> <Bond>
0.063

> <Angle>
2.579

> <Pdih>
0.010

> <Idih>
0.000

> <Tether>
0.000

$$$$
VeraChem MOL file


 17 16  0  0  0  0  0  0  0  0999 V2000     
   20.1765   16.2574   23.2600 C   0  0  0  0  0  0  0  0  0  0  0  0
   20.2529   15.5898   22.2457 O   0  5  0  0  0  0  0  0  0  0  0  0
   20.4469   15.8184   24.3609 O   0  0  0  0  0  0  0  0  0  0  0  0
   19.7317   17.6749   23.1756 C   0  0  0  0  0  0  0  0  0  0  0  0
   19.6845   18.2146   24.1186 H   0  0  0  0  0  0  0  0  0  0  0  0
   19.4009   18.2934   22.0193 C   0  0  0  0  0  0  0  0  0  0  0  0
   19.4479   17.7631   21.0684 H   0  0  0  0  0  0  0  0  0  0  0  0
   18.9527   19.7376   21.9407 C   0  0  0  0  0  0  0  0  0  0  0  0
   18.2796   19.9606   22.7796 H   0  0  0  0  0  0  0  0  0  0  0  0
   18.3653   19.8966   21.0263 H   0  0  0  0  0  0  0  0  0  0  0  0
   20.1409   20.7240   21.9691 C   0  0  0  0  0  0  0  0  0  0  0  0
   19.7539   21.7512   22.0163 H   0  0  0  0  0  0  0  0  0  0  0  0
   20.7299   20.5682   22.8835 H   0  0  0  0  0  0  0  0  0  0  0  0
   21.0543   20.5854   20.7325 C   0  0  0  0  0  0  0  0  0  0  0  0
   20.4887   20.7498   19.8061 H   0  0  0  0  0  0  0  0  0  0  0  0
   21.8672   21.3222   20.7686 H   0  0  0  0  0  0  0  0  0  0  0  0
   21.5076   19.5866   20.6848 H   0  0  0  0  0  0  0  0  0  0  0  0
  1  2  1  0  0  0  0
  1  3  2  0  0  0  0
  1  4  1  0  0  0  0
  4  5  1  0  0  0  0
  4  6  2  0  0  0  0
  6  7  1  0  0  0  0
  6  8  1  0  0  0  0
  8  9  1  0  0  0  0
  8 10  1  0  0  0  0
  8 11  1  0  0  0  0
 11 12  1  0  0  0  0
 11 13  1  0  0  0  0
 11 14  1  0  0  0  0
 14 15  1  0  0  0  0
 14 16  1  0  0  0  0
 14 17  1  0  0  0  0
M  END
> <VConfSearch Rank>
983

> <Conf_Id>
3

> <Delta U+W>
0.531

> <U+W>
-52.878

> <U>
10.067

> <W>
-62.945

> <W(PB)>
-64.982

> <W(SA)>
2.037

> <Valence>
2.779

> <Coulomb>
6.474

> <VdW>
0.815

> <VdW6>
-5.088

> <VdW12>
5.902

> <Bond>
0.078

> <Angle>
2.651

> <Pdih>
0.050

> <Idih>
0.000

> <Tether>
0.000

$$$$
VeraChem MOL file


 17 16  0  0  0  0  0  0  0  0999 V2000     
   19.0371   21.1613   20.0806 C   0  0  0  0  0  0  0  0  0  0  0  0
   19.6672   21.7607   19.2312 O   0  5  0  0  0  0  0  0  0  0  0  0
   17.9695   21.5551   20.5116 O   0  0  0  0  0  0  0  0  0  0  0  0
   19.6157   19.8917   20.5977 C   0  0  0  0  0  0  0  0  0  0  0  0
   20.5714   19.5977   20.1701 H   0  0  0  0  0  0  0  0  0  0  0  0
   19.0258   19.1246   21.5428 C   0  0  0  0  0  0  0  0  0  0  0  0
   18.0701   19.4137   21.9792 H   0  0  0  0  0  0  0  0  0  0  0  0
   19.6188   17.8340   22.0692 C   0  0  0  0  0  0  0  0  0  0  0  0
   20.3948   17.4591   21.3880 H   0  0  0  0  0  0  0  0  0  0  0  0
   18.8362   17.0639   22.0937 H   0  0  0  0  0  0  0  0  0  0  0  0
   20.2074   17.9951   23.4879 C   0  0  0  0  0  0  0  0  0  0  0  0
   19.4325   18.3726   24.1694 H   0  0  0  0  0  0  0  0  0  0  0  0
   20.5047   17.0076   23.8670 H   0  0  0  0  0  0  0  0  0  0  0  0
   21.4313   18.9353   23.5199 C   0  0  0  0  0  0  0  0  0  0  0  0
   21.1582   19.9518   23.2080 H   0  0  0  0  0  0  0  0  0  0  0  0
   21.8460   18.9949   24.5345 H   0  0  0  0  0  0  0  0  0  0  0  0
   22.2224   18.5727   22.8508 H   0  0  0  0  0  0  0  0  0  0  0  0
  1  2  1  0  0  0  0
  1  3  2  0  0  0  0
  1  4  1  0  0  0  0
  4  5  1  0  0  0  0
  4  6  2  0  0  0  0
  6  7  1  0  0  0  0
  6  8  1  0  0  0  0
  8  9  1  0  0  0  0
  8 10  1  0  0  0  0
  8 11  1  0  0  0  0
 11 12  1  0  0  0  0
 11 13  1  0  0  0  0
 11 14  1  0  0  0  0
 14 15  1  0  0  0  0
 14 16  1  0  0  0  0
 14 17  1  0  0  0  0
M  END
> <VConfSearch Rank>
984

> <Conf_Id>
45

> <Delta U+W>
0.562

> <U+W>
-52.846

> <U>
10.243

> <W>
-63.089

> <W(PB)>
-65.116

> <W(SA)>
2.026

> <Valence>
2.822

> <Coulomb>
6.637

> <VdW>
0.785

> <VdW6>
-5.216

> <VdW12>
6.001

> <Bond>
0.080

> <Angle>
2.678

> <Pdih>
0.064

> <Idih>
0.000

> <Tether>
0.000

$$$$
VeraChem MOL file


 17 16  0  0  0  0  0  0  0  0999 V2000     
   16.9013   18.0975   21.0317 C   0  0  0  0  0  0  0  0  0  0  0  0
   15.8621   18.7275   21.0033 O   0  5  0  0  0  0  0  0  0  0  0  0
   16.9408   16.8842   20.9492 O   0  0  0  0  0  0  0  0  0  0  0  0
   18.1676   18.8660   21.1727 C   0  0  0  0  0  0  0  0  0  0  0  0
   18.0620   19.9463   21.2413 H   0  0  0  0  0  0  0  0  0  0  0  0
   19.3936   18.2968   21.2195 C   0  0  0  0  0  0  0  0  0  0  0  0
   19.5107   17.2153   21.1541 H   0  0  0  0  0  0  0  0  0  0  0  0
   20.6764   19.0856   21.3653 C   0  0  0  0  0  0  0  0  0  0  0  0
   20.6144   20.0147   20.7824 H   0  0  0  0  0  0  0  0  0  0  0  0
   21.5123   18.5092   20.9465 H   0  0  0  0  0  0  0  0  0  0  0  0
   20.9674   19.4170   22.8434 C   0  0  0  0  0  0  0  0  0  0  0  0
   20.1339   19.9974   23.2628 H   0  0  0  0  0  0  0  0  0  0  0  0
   21.0310   18.4862   23.4240 H   0  0  0  0  0  0  0  0  0  0  0  0
   22.2785   20.2129   23.0014 C   0  0  0  0  0  0  0  0  0  0  0  0
   23.1340   19.6412   22.6183 H   0  0  0  0  0  0  0  0  0  0  0  0
   22.2291   21.1639   22.4549 H   0  0  0  0  0  0  0  0  0  0  0  0
   22.4685   20.4393   24.0587 H   0  0  0  0  0  0  0  0  0  0  0  0
  1  2  1  0  0  0  0
  1  3  2  0  0  0  0
  1  4  1  0  0  0  0
  4  5  1  0  0  0  0
  4  6  2  0  0  0  0
  6  7  1  0  0  0  0
  6  8  1  0  0  0  0
  8  9  1  0  0  0  0
  8 10  1  0  0  0  0
  8 11  1  0  0  0  0
 11 12  1  0  0  0  0
 11 13  1  0  0  0  0
 11 14  1  0  0  0  0
 14 15  1  0  0  0  0
 14 16  1  0  0  0  0
 14 17  1  0  0  0  0
M  END
> <VConfSearch Rank>
985

> <Conf_Id>
36

> <Delta U+W>
0.000

> <U+W>
-53.409

> <U>
9.048

> <W>
-62.457

> <W(PB)>
-64.540

> <W(SA)>
2.084

> <Valence>
2.652

> <Coulomb>
5.578

> <VdW>
0.818

> <VdW6>
-4.534

> <VdW12>
5.352

> <Bond>
0.063

> <Angle>
2.579

> <Pdih>
0.010

> <Idih>
0.000

> <Tether>
0.000

$$$$
VeraChem MOL file


 17 16  0  0  0  0  0  0  0  0999 V2000     
   17.7620   18.3387   24.3087 C   0  0  0  0  0  0  0  0  0  0  0  0
   18.0800   18.9657   25.3018 O   0  5  0  0  0  0  0  0  0  0  0  0
   16.9170   17.4650   24.3222 O   0  0  0  0  0  0  0  0  0  0  0  0
   18.4213   18.6375   23.0086 C   0  0  0  0  0  0  0  0  0  0  0  0
   18.0910   18.0414   22.1609 H   0  0  0  0  0  0  0  0  0  0  0  0
   19.3770   19.5807   22.8473 C   0  0  0  0  0  0  0  0  0  0  0  0
   19.7168   20.1821   23.6902 H   0  0  0  0  0  0  0  0  0  0  0  0
   20.0438   19.8770   21.5219 C   0  0  0  0  0  0  0  0  0  0  0  0
   20.4214   20.9084   21.5225 H   0  0  0  0  0  0  0  0  0  0  0  0
   19.3078   19.8142   20.7088 H   0  0  0  0  0  0  0  0  0  0  0  0
   21.2069   18.9018   21.2475 C   0  0  0  0  0  0  0  0  0  0  0  0
   21.9428   18.9680   22.0610 H   0  0  0  0  0  0  0  0  0  0  0  0
   20.8301   17.8696   21.2425 H   0  0  0  0  0  0  0  0  0  0  0  0
   21.8979   19.2031   19.9024 C   0  0  0  0  0  0  0  0  0  0  0  0
   22.3121   20.2198   19.8924 H   0  0  0  0  0  0  0  0  0  0  0  0
   22.7219   18.4998   19.7249 H   0  0  0  0  0  0  0  0  0  0  0  0
   21.1898   19.1130   19.0682 H   0  0  0  0  0  0  0  0  0  0  0  0
  1  2  1  0  0  0  0
  1  3  2  0  0  0  0
  1  4  1  0  0  0  0
  4  5  1  0  0  0  0
  4  6  2  0  0  0  0
  6  7  1  0  0  0  0
  6  8  1  0  0  0  0
  8  9  1  0  0  0  0
  8 10  1  0  0  0  0
  8 11  1  0  0  0  0
 11 12  1  0  0  0  0
 11 13  1  0  0  0  0
 11 14  1  0  0  0  0
 14 15  1  0  0  0  0
 14 16  1  0  0  0  0
 14 17  1  0  0  0  0
M  END
> <VConfSearch Rank>
986

> <Conf_Id>
1

> <Delta U+W>
0.030

> <U+W>
-53.378

> <U>
9.048

> <W>
-62.426

> <W(PB)>
-64.506

> <W(SA)>
2.080

> <Valence>
2.652

> <Coulomb>
5.578

> <VdW>
0.818

> <VdW6>
-4.535

> <VdW12>
5.352

> <Bond>
0.063

> <Angle>
2.579

> <Pdih>
0.010

> <Idih>
0.000

> <Tether>
0.000

$$$$
VeraChem MOL file


 17 16  0  0  0  0  0  0  0  0999 V2000     
   19.7875   19.3944   18.9920 C   0  0  0  0  0  0  0  0  0  0  0  0
   18.6020   19.6466   18.8853 O   0  5  0  0  0  0  0  0  0  0  0  0
   20.5860   19.5853   18.0954 O   0  0  0  0  0  0  0  0  0  0  0  0
   20.3063   18.8233   20.2643 C   0  0  0  0  0  0  0  0  0  0  0  0
   21.3743   18.6203   20.2929 H   0  0  0  0  0  0  0  0  0  0  0  0
   19.5337   18.5610   21.3429 C   0  0  0  0  0  0  0  0  0  0  0  0
   18.4631   18.7636   21.3263 H   0  0  0  0  0  0  0  0  0  0  0  0
   20.0695   17.9833   22.6360 C   0  0  0  0  0  0  0  0  0  0  0  0
   20.8105   17.2040   22.4121 H   0  0  0  0  0  0  0  0  0  0  0  0
   19.2593   17.4862   23.1863 H   0  0  0  0  0  0  0  0  0  0  0  0
   20.7205   19.0578   23.5344 C   0  0  0  0  0  0  0  0  0  0  0  0
   21.1821   18.5682   24.4030 H   0  0  0  0  0  0  0  0  0  0  0  0
   21.5325   19.5560   22.9869 H   0  0  0  0  0  0  0  0  0  0  0  0
   19.7049   20.1098   24.0290 C   0  0  0  0  0  0  0  0  0  0  0  0
   18.8898   19.6351   24.5906 H   0  0  0  0  0  0  0  0  0  0  0  0
   20.1937   20.8369   24.6903 H   0  0  0  0  0  0  0  0  0  0  0  0
   19.2656   20.6621   23.1881 H   0  0  0  0  0  0  0  0  0  0  0  0
  1  2  1  0  0  0  0
  1  3  2  0  0  0  0
  1  4  1  0  0  0  0
  4  5  1  0  0  0  0
  4  6  2  0  0  0  0
  6  7  1  0  0  0  0
  6  8  1  0  0  0  0
  8  9  1  0  0  0  0
  8 10  1  0  0  0  0
  8 11  1  0  0  0  0
 11 12  1  0  0  0  0
 11 13  1  0  0  0  0
 11 14  1  0  0  0  0
 14 15  1  0  0  0  0
 14 16  1  0  0  0  0
 14 17  1  0  0  0  0
M  END
> <VConfSearch Rank>
987

> <Conf_Id>
3

> <Delta U+W>
0.531

> <U+W>
-52.878

> <U>
10.067

> <W>
-62.945

> <W(PB)>
-64.982

> <W(SA)>
2.037

> <Valence>
2.779

> <Coulomb>
6.474

> <VdW>
0.815

> <VdW6>
-5.088

> <VdW12>
5.902

> <Bond>
0.078

> <Angle>
2.651

> <Pdih>
0.050

> <Idih>
0.000

> <Tether>
0.000

$$$$
VeraChem MOL file


 17 16  0  0  0  0  0  0  0  0999 V2000     
   18.5073   17.8210   19.7692 C   0  0  0  0  0  0  0  0  0  0  0  0
   17.3511   17.9543   19.4183 O   0  5  0  0  0  0  0  0  0  0  0  0
   19.1870   16.8625   19.4535 O   0  0  0  0  0  0  0  0  0  0  0  0
   19.0954   18.8917   20.6189 C   0  0  0  0  0  0  0  0  0  0  0  0
   18.4338   19.7193   20.8639 H   0  0  0  0  0  0  0  0  0  0  0  0
   20.3659   18.8730   21.0828 C   0  0  0  0  0  0  0  0  0  0  0  0
   21.0343   18.0458   20.8452 H   0  0  0  0  0  0  0  0  0  0  0  0
   20.9609   19.9631   21.9499 C   0  0  0  0  0  0  0  0  0  0  0  0
   20.3552   20.8777   21.8908 H   0  0  0  0  0  0  0  0  0  0  0  0
   21.9531   20.2286   21.5613 H   0  0  0  0  0  0  0  0  0  0  0  0
   21.1007   19.5279   23.4251 C   0  0  0  0  0  0  0  0  0  0  0  0
   21.7043   18.6116   23.4849 H   0  0  0  0  0  0  0  0  0  0  0  0
   21.6509   20.3025   23.9768 H   0  0  0  0  0  0  0  0  0  0  0  0
   19.7358   19.2974   24.1083 C   0  0  0  0  0  0  0  0  0  0  0  0
   19.1822   18.4833   23.6227 H   0  0  0  0  0  0  0  0  0  0  0  0
   19.8729   19.0281   25.1635 H   0  0  0  0  0  0  0  0  0  0  0  0
   19.1181   20.2039   24.0669 H   0  0  0  0  0  0  0  0  0  0  0  0
  1  2  1  0  0  0  0
  1  3  2  0  0  0  0
  1  4  1  0  0  0  0
  4  5  1  0  0  0  0
  4  6  2  0  0  0  0
  6  7  1  0  0  0  0
  6  8  1  0  0  0  0
  8  9  1  0  0  0  0
  8 10  1  0  0  0  0
  8 11  1  0  0  0  0
 11 12  1  0  0  0  0
 11 13  1  0  0  0  0
 11 14  1  0  0  0  0
 14 15  1  0  0  0  0
 14 16  1  0  0  0  0
 14 17  1  0  0  0  0
M  END
> <VConfSearch Rank>
988

> <Conf_Id>
45

> <Delta U+W>
0.562

> <U+W>
-52.846

> <U>
10.243

> <W>
-63.089

> <W(PB)>
-65.116

> <W(SA)>
2.026

> <Valence>
2.822

> <Coulomb>
6.637

> <VdW>
0.785

> <VdW6>
-5.216

> <VdW12>
6.001

> <Bond>
0.080

> <Angle>
2.678

> <Pdih>
0.064

> <Idih>
0.000

> <Tether>
0.000

$$$$
VeraChem MOL file


 17 16  0  0  0  0  0  0  0  0999 V2000     
   18.4257   16.2923   20.9448 C   0  0  0  0  0  0  0  0  0  0  0  0
   18.7467   15.1338   21.1252 O   0  5  0  0  0  0  0  0  0  0  0  0
   17.5580   16.6227   20.1585 O   0  0  0  0  0  0  0  0  0  0  0  0
   19.1386   17.3340   21.7328 C   0  0  0  0  0  0  0  0  0  0  0  0
   19.9023   16.9716   22.4171 H   0  0  0  0  0  0  0  0  0  0  0  0
   18.8860   18.6589   21.6333 C   0  0  0  0  0  0  0  0  0  0  0  0
   18.1246   19.0330   20.9491 H   0  0  0  0  0  0  0  0  0  0  0  0
   19.6171   19.7120   22.4368 C   0  0  0  0  0  0  0  0  0  0  0  0
   19.8004   19.3464   23.4564 H   0  0  0  0  0  0  0  0  0  0  0  0
   18.9852   20.6050   22.5340 H   0  0  0  0  0  0  0  0  0  0  0  0
   20.9554   20.0964   21.7732 C   0  0  0  0  0  0  0  0  0  0  0  0
   21.5906   19.2047   21.6791 H   0  0  0  0  0  0  0  0  0  0  0  0
   20.7693   20.4637   20.7544 H   0  0  0  0  0  0  0  0  0  0  0  0
   21.7025   21.1764   22.5813 C   0  0  0  0  0  0  0  0  0  0  0  0
   21.1017   22.0916   22.6636 H   0  0  0  0  0  0  0  0  0  0  0  0
   21.9284   20.8220   23.5956 H   0  0  0  0  0  0  0  0  0  0  0  0
   22.6513   21.4366   22.0942 H   0  0  0  0  0  0  0  0  0  0  0  0
  1  2  1  0  0  0  0
  1  3  2  0  0  0  0
  1  4  1  0  0  0  0
  4  5  1  0  0  0  0
  4  6  2  0  0  0  0
  6  7  1  0  0  0  0
  6  8  1  0  0  0  0
  8  9  1  0  0  0  0
  8 10  1  0  0  0  0
  8 11  1  0  0  0  0
 11 12  1  0  0  0  0
 11 13  1  0  0  0  0
 11 14  1  0  0  0  0
 14 15  1  0  0  0  0
 14 16  1  0  0  0  0
 14 17  1  0  0  0  0
M  END
> <VConfSearch Rank>
989

> <Conf_Id>
36

> <Delta U+W>
0.000

> <U+W>
-53.409

> <U>
9.048

> <W>
-62.457

> <W(PB)>
-64.540

> <W(SA)>
2.084

> <Valence>
2.652

> <Coulomb>
5.578

> <VdW>
0.818

> <VdW6>
-4.534

> <VdW12>
5.352

> <Bond>
0.063

> <Angle>
2.579

> <Pdih>
0.010

> <Idih>
0.000

> <Tether>
0.000

$$$$
VeraChem MOL file


 17 16  0  0  0  0  0  0  0  0999 V2000     
   21.6557   19.0667   24.8601 C   0  0  0  0  0  0  0  0  0  0  0  0
   21.1784   18.1639   25.5216 O   0  5  0  0  0  0  0  0  0  0  0  0
   22.4186   19.8922   25.3232 O   0  0  0  0  0  0  0  0  0  0  0  0
   21.3065   19.1857   23.4186 C   0  0  0  0  0  0  0  0  0  0  0  0
   21.7672   20.0142   22.8854 H   0  0  0  0  0  0  0  0  0  0  0  0
   20.4714   18.3400   22.7731 C   0  0  0  0  0  0  0  0  0  0  0  0
   20.0027   17.5079   23.2981 H   0  0  0  0  0  0  0  0  0  0  0  0
   20.1200   18.4692   21.3071 C   0  0  0  0  0  0  0  0  0  0  0  0
   19.8206   17.4887   20.9129 H   0  0  0  0  0  0  0  0  0  0  0  0
   21.0049   18.7791   20.7347 H   0  0  0  0  0  0  0  0  0  0  0  0
   18.9782   19.4832   21.0902 C   0  0  0  0  0  0  0  0  0  0  0  0
   18.0936   19.1699   21.6619 H   0  0  0  0  0  0  0  0  0  0  0  0
   19.2778   20.4658   21.4804 H   0  0  0  0  0  0  0  0  0  0  0  0
   18.6077   19.6137   19.5991 C   0  0  0  0  0  0  0  0  0  0  0  0
   18.2738   18.6506   19.1914 H   0  0  0  0  0  0  0  0  0  0  0  0
   17.7945   20.3388   19.4647 H   0  0  0  0  0  0  0  0  0  0  0  0
   19.4680   19.9562   19.0091 H   0  0  0  0  0  0  0  0  0  0  0  0
  1  2  1  0  0  0  0
  1  3  2  0  0  0  0
  1  4  1  0  0  0  0
  4  5  1  0  0  0  0
  4  6  2  0  0  0  0
  6  7  1  0  0  0  0
  6  8  1  0  0  0  0
  8  9  1  0  0  0  0
  8 10  1  0  0  0  0
  8 11  1  0  0  0  0
 11 12  1  0  0  0  0
 11 13  1  0  0  0  0
 11 14  1  0  0  0  0
 14 15  1  0  0  0  0
 14 16  1  0  0  0  0
 14 17  1  0  0  0  0
M  END
> <VConfSearch Rank>
990

> <Conf_Id>
1

> <Delta U+W>
0.030

> <U+W>
-53.378

> <U>
9.048

> <W>
-62.426

> <W(PB)>
-64.506

> <W(SA)>
2.080

> <Valence>
2.652

> <Coulomb>
5.578

> <VdW>
0.818

> <VdW6>
-4.535

> <VdW12>
5.352

> <Bond>
0.063

> <Angle>
2.579

> <Pdih>
0.010

> <Idih>
0.000

> <Tether>
0.000

$$$$
VeraChem MOL file


 17 16  0  0  0  0  0  0  0  0999 V2000     
   19.4182   17.2247   24.4316 C   0  0  0  0  0  0  0  0  0  0  0  0
   18.5217   16.5496   23.9616 O   0  5  0  0  0  0  0  0  0  0  0  0
   20.0260   16.9077   25.4356 O   0  0  0  0  0  0  0  0  0  0  0  0
   19.8036   18.4998   23.7687 C   0  0  0  0  0  0  0  0  0  0  0  0
   20.6112   19.0549   24.2403 H   0  0  0  0  0  0  0  0  0  0  0  0
   19.2152   18.9739   22.6471 C   0  0  0  0  0  0  0  0  0  0  0  0
   18.4075   18.4242   22.1644 H   0  0  0  0  0  0  0  0  0  0  0  0
   19.6154   20.2709   21.9757 C   0  0  0  0  0  0  0  0  0  0  0  0
   19.8118   21.0356   22.7394 H   0  0  0  0  0  0  0  0  0  0  0  0
   18.7814   20.6501   21.3700 H   0  0  0  0  0  0  0  0  0  0  0  0
   20.8680   20.1101   21.0865 C   0  0  0  0  0  0  0  0  0  0  0  0
   21.1720   21.0975   20.7124 H   0  0  0  0  0  0  0  0  0  0  0  0
   21.7047   19.7319   21.6901 H   0  0  0  0  0  0  0  0  0  0  0  0
   20.6251   19.1692   19.8872 C   0  0  0  0  0  0  0  0  0  0  0  0
   19.8002   19.5348   19.2619 H   0  0  0  0  0  0  0  0  0  0  0  0
   21.5233   19.1045   19.2594 H   0  0  0  0  0  0  0  0  0  0  0  0
   20.3764   18.1543   20.2240 H   0  0  0  0  0  0  0  0  0  0  0  0
  1  2  1  0  0  0  0
  1  3  2  0  0  0  0
  1  4  1  0  0  0  0
  4  5  1  0  0  0  0
  4  6  2  0  0  0  0
  6  7  1  0  0  0  0
  6  8  1  0  0  0  0
  8  9  1  0  0  0  0
  8 10  1  0  0  0  0
  8 11  1  0  0  0  0
 11 12  1  0  0  0  0
 11 13  1  0  0  0  0
 11 14  1  0  0  0  0
 14 15  1  0  0  0  0
 14 16  1  0  0  0  0
 14 17  1  0  0  0  0
M  END
> <VConfSearch Rank>
991

> <Conf_Id>
3

> <Delta U+W>
0.531

> <U+W>
-52.878

> <U>
10.067

> <W>
-62.945

> <W(PB)>
-64.982

> <W(SA)>
2.037

> <Valence>
2.779

> <Coulomb>
6.474

> <VdW>
0.815

> <VdW6>
-5.088

> <VdW12>
5.902

> <Bond>
0.078

> <Angle>
2.651

> <Pdih>
0.050

> <Idih>
0.000

> <Tether>
0.000

$$$$
VeraChem MOL file


 17 16  0  0  0  0  0  0  0  0999 V2000     
   17.3421   19.6671   20.7151 C   0  0  0  0  0  0  0  0  0  0  0  0
   17.0212   19.5105   19.5531 O   0  5  0  0  0  0  0  0  0  0  0  0
   16.7538   20.4216   21.4668 O   0  0  0  0  0  0  0  0  0  0  0  0
   18.5064   18.8885   21.2175 C   0  0  0  0  0  0  0  0  0  0  0  0
   18.9861   18.2334   20.4940 H   0  0  0  0  0  0  0  0  0  0  0  0
   18.9741   18.9652   22.4844 C   0  0  0  0  0  0  0  0  0  0  0  0
   18.5016   19.6217   23.2146 H   0  0  0  0  0  0  0  0  0  0  0  0
   20.1613   18.1734   22.9921 C   0  0  0  0  0  0  0  0  0  0  0  0
   20.3827   17.3342   22.3186 H   0  0  0  0  0  0  0  0  0  0  0  0
   19.9058   17.7268   23.9623 H   0  0  0  0  0  0  0  0  0  0  0  0
   21.4217   19.0499   23.1606 C   0  0  0  0  0  0  0  0  0  0  0  0
   21.2004   19.8911   23.8321 H   0  0  0  0  0  0  0  0  0  0  0  0
   22.2078   18.4573   23.6485 H   0  0  0  0  0  0  0  0  0  0  0  0
   21.9572   19.5850   21.8153 C   0  0  0  0  0  0  0  0  0  0  0  0
   21.2209   20.2363   21.3267 H   0  0  0  0  0  0  0  0  0  0  0  0
   22.8733   20.1696   21.9695 H   0  0  0  0  0  0  0  0  0  0  0  0
   22.1925   18.7600   21.1304 H   0  0  0  0  0  0  0  0  0  0  0  0
  1  2  1  0  0  0  0
  1  3  2  0  0  0  0
  1  4  1  0  0  0  0
  4  5  1  0  0  0  0
  4  6  2  0  0  0  0
  6  7  1  0  0  0  0
  6  8  1  0  0  0  0
  8  9  1  0  0  0  0
  8 10  1  0  0  0  0
  8 11  1  0  0  0  0
 11 12  1  0  0  0  0
 11 13  1  0  0  0  0
 11 14  1  0  0  0  0
 14 15  1  0  0  0  0
 14 16  1  0  0  0  0
 14 17  1  0  0  0  0
M  END
> <VConfSearch Rank>
992

> <Conf_Id>
45

> <Delta U+W>
0.562

> <U+W>
-52.846

> <U>
10.243

> <W>
-63.089

> <W(PB)>
-65.116

> <W(SA)>
2.026

> <Valence>
2.822

> <Coulomb>
6.637

> <VdW>
0.785

> <VdW6>
-5.216

> <VdW12>
6.001

> <Bond>
0.080

> <Angle>
2.678

> <Pdih>
0.064

> <Idih>
0.000

> <Tether>
0.000

$$$$
VeraChem MOL file


 17 16  0  0  0  0  0  0  0  0999 V2000     
   19.9091   16.3817   23.8845 C   0  0  0  0  0  0  0  0  0  0  0  0
   20.6950   16.0259   24.7409 O   0  5  0  0  0  0  0  0  0  0  0  0
   19.0434   15.6524   23.4382 O   0  0  0  0  0  0  0  0  0  0  0  0
   20.0300   17.7750   23.3765 C   0  0  0  0  0  0  0  0  0  0  0  0
   20.8240   18.3736   23.8171 H   0  0  0  0  0  0  0  0  0  0  0  0
   19.2258   18.3032   22.4260 C   0  0  0  0  0  0  0  0  0  0  0  0
   18.4286   17.7116   21.9762 H   0  0  0  0  0  0  0  0  0  0  0  0
   19.3569   19.7207   21.9134 C   0  0  0  0  0  0  0  0  0  0  0  0
   19.6094   20.3975   22.7409 H   0  0  0  0  0  0  0  0  0  0  0  0
   18.3902   20.0592   21.5166 H   0  0  0  0  0  0  0  0  0  0  0  0
   20.4313   19.8225   20.8114 C   0  0  0  0  0  0  0  0  0  0  0  0
   21.4000   19.4881   21.2079 H   0  0  0  0  0  0  0  0  0  0  0  0
   20.1755   19.1462   19.9839 H   0  0  0  0  0  0  0  0  0  0  0  0
   20.5645   21.2626   20.2768 C   0  0  0  0  0  0  0  0  0  0  0  0
   19.6169   21.6108   19.8450 H   0  0  0  0  0  0  0  0  0  0  0  0
   20.8504   21.9548   21.0796 H   0  0  0  0  0  0  0  0  0  0  0  0
   21.3328   21.3153   19.4945 H   0  0  0  0  0  0  0  0  0  0  0  0
  1  2  1  0  0  0  0
  1  3  2  0  0  0  0
  1  4  1  0  0  0  0
  4  5  1  0  0  0  0
  4  6  2  0  0  0  0
  6  7  1  0  0  0  0
  6  8  1  0  0  0  0
  8  9  1  0  0  0  0
  8 10  1  0  0  0  0
  8 11  1  0  0  0  0
 11 12  1  0  0  0  0
 11 13  1  0  0  0  0
 11 14  1  0  0  0  0
 14 15  1  0  0  0  0
 14 16  1  0  0  0  0
 14 17  1  0  0  0  0
M  END
> <VConfSearch Rank>
993

> <Conf_Id>
36

> <Delta U+W>
0.000

> <U+W>
-53.409

> <U>
9.048

> <W>
-62.457

> <W(PB)>
-64.540

> <W(SA)>
2.084

> <Valence>
2.652

> <Coulomb>
5.578

> <VdW>
0.818

> <VdW6>
-4.534

> <VdW12>
5.352

> <Bond>
0.063

> <Angle>
2.579

> <Pdih>
0.010

> <Idih>
0.000

> <Tether>
0.000

$$$$
VeraChem MOL file


 17 16  0  0  0  0  0  0  0  0999 V2000     
   18.7716   15.9844   21.5032 C   0  0  0  0  0  0  0  0  0  0  0  0
   17.6333   16.1110   21.0926 O   0  5  0  0  0  0  0  0  0  0  0  0
   19.2239   14.9197   21.8766 O   0  0  0  0  0  0  0  0  0  0  0  0
   19.6689   17.1701   21.5589 C   0  0  0  0  0  0  0  0  0  0  0  0
   20.6729   16.9882   21.9355 H   0  0  0  0  0  0  0  0  0  0  0  0
   19.2991   18.4138   21.1773 C   0  0  0  0  0  0  0  0  0  0  0  0
   18.2950   18.6076   20.8005 H   0  0  0  0  0  0  0  0  0  0  0  0
   20.2174   19.6147   21.2388 C   0  0  0  0  0  0  0  0  0  0  0  0
   19.8909   20.3652   20.5063 H   0  0  0  0  0  0  0  0  0  0  0  0
   21.2373   19.3226   20.9537 H   0  0  0  0  0  0  0  0  0  0  0  0
   20.2300   20.2407   22.6484 C   0  0  0  0  0  0  0  0  0  0  0  0
   19.2092   20.5340   22.9304 H   0  0  0  0  0  0  0  0  0  0  0  0
   20.5603   19.4923   23.3820 H   0  0  0  0  0  0  0  0  0  0  0  0
   21.1567   21.4712   22.7171 C   0  0  0  0  0  0  0  0  0  0  0  0
   20.8295   22.2492   22.0148 H   0  0  0  0  0  0  0  0  0  0  0  0
   21.1526   21.9026   23.7265 H   0  0  0  0  0  0  0  0  0  0  0  0
   22.1909   21.1985   22.4693 H   0  0  0  0  0  0  0  0  0  0  0  0
  1  2  1  0  0  0  0
  1  3  2  0  0  0  0
  1  4  1  0  0  0  0
  4  5  1  0  0  0  0
  4  6  2  0  0  0  0
  6  7  1  0  0  0  0
  6  8  1  0  0  0  0
  8  9  1  0  0  0  0
  8 10  1  0  0  0  0
  8 11  1  0  0  0  0
 11 12  1  0  0  0  0
 11 13  1  0  0  0  0
 11 14  1  0  0  0  0
 14 15  1  0  0  0  0
 14 16  1  0  0  0  0
 14 17  1  0  0  0  0
M  END
> <VConfSearch Rank>
994

> <Conf_Id>
1

> <Delta U+W>
0.030

> <U+W>
-53.378

> <U>
9.048

> <W>
-62.426

> <W(PB)>
-64.506

> <W(SA)>
2.080

> <Valence>
2.652

> <Coulomb>
5.578

> <VdW>
0.818

> <VdW6>
-4.535

> <VdW12>
5.352

> <Bond>
0.063

> <Angle>
2.579

> <Pdih>
0.010

> <Idih>
0.000

> <Tether>
0.000

$$$$
VeraChem MOL file


 17 16  0  0  0  0  0  0  0  0999 V2000     
   17.8583   21.2860   22.1516 C   0  0  0  0  0  0  0  0  0  0  0  0
   18.4947   22.1949   22.6511 O   0  5  0  0  0  0  0  0  0  0  0  0
   16.7927   21.4564   21.5919 O   0  0  0  0  0  0  0  0  0  0  0  0
   18.3849   19.8960   22.2189 C   0  0  0  0  0  0  0  0  0  0  0  0
   17.7669   19.1312   21.7540 H   0  0  0  0  0  0  0  0  0  0  0  0
   19.5551   19.5610   22.8083 C   0  0  0  0  0  0  0  0  0  0  0  0
   20.1837   20.3197   23.2740 H   0  0  0  0  0  0  0  0  0  0  0  0
   20.0865   18.1444   22.8694 C   0  0  0  0  0  0  0  0  0  0  0  0
   19.2614   17.4503   23.0791 H   0  0  0  0  0  0  0  0  0  0  0  0
   20.7898   18.0458   23.7072 H   0  0  0  0  0  0  0  0  0  0  0  0
   20.7833   17.7210   21.5577 C   0  0  0  0  0  0  0  0  0  0  0  0
   21.0527   16.6577   21.6211 H   0  0  0  0  0  0  0  0  0  0  0  0
   20.0816   17.8174   20.7176 H   0  0  0  0  0  0  0  0  0  0  0  0
   22.0551   18.5473   21.2702 C   0  0  0  0  0  0  0  0  0  0  0  0
   22.7771   18.4556   22.0921 H   0  0  0  0  0  0  0  0  0  0  0  0
   22.5423   18.1983   20.3505 H   0  0  0  0  0  0  0  0  0  0  0  0
   21.8156   19.6109   21.1412 H   0  0  0  0  0  0  0  0  0  0  0  0
  1  2  1  0  0  0  0
  1  3  2  0  0  0  0
  1  4  1  0  0  0  0
  4  5  1  0  0  0  0
  4  6  2  0  0  0  0
  6  7  1  0  0  0  0
  6  8  1  0  0  0  0
  8  9  1  0  0  0  0
  8 10  1  0  0  0  0
  8 11  1  0  0  0  0
 11 12  1  0  0  0  0
 11 13  1  0  0  0  0
 11 14  1  0  0  0  0
 14 15  1  0  0  0  0
 14 16  1  0  0  0  0
 14 17  1  0  0  0  0
M  END
> <VConfSearch Rank>
995

> <Conf_Id>
3

> <Delta U+W>
0.531

> <U+W>
-52.878

> <U>
10.067

> <W>
-62.945

> <W(PB)>
-64.982

> <W(SA)>
2.037

> <Valence>
2.779

> <Coulomb>
6.474

> <VdW>
0.815

> <VdW6>
-5.088

> <VdW12>
5.902

> <Bond>
0.078

> <Angle>
2.651

> <Pdih>
0.050

> <Idih>
0.000

> <Tether>
0.000

$$$$
VeraChem MOL file


 17 16  0  0  0  0  0  0  0  0999 V2000     
   21.8682   21.4397   21.8213 C   0  0  0  0  0  0  0  0  0  0  0  0
   23.0637   21.4489   21.6014 O   0  5  0  0  0  0  0  0  0  0  0  0
   21.2837   22.3760   22.3332 O   0  0  0  0  0  0  0  0  0  0  0  0
   21.1078   20.2201   21.4358 C   0  0  0  0  0  0  0  0  0  0  0  0
   21.6909   19.4214   20.9834 H   0  0  0  0  0  0  0  0  0  0  0  0
   19.7765   20.0715   21.6234 C   0  0  0  0  0  0  0  0  0  0  0  0
   19.1854   20.8653   22.0794 H   0  0  0  0  0  0  0  0  0  0  0  0
   19.0057   18.8276   21.2324 C   0  0  0  0  0  0  0  0  0  0  0  0
   19.5849   18.2211   20.5228 H   0  0  0  0  0  0  0  0  0  0  0  0
   18.0902   19.1247   20.7037 H   0  0  0  0  0  0  0  0  0  0  0  0
   18.6207   17.9677   22.4562 C   0  0  0  0  0  0  0  0  0  0  0  0
   18.0435   18.5743   23.1678 H   0  0  0  0  0  0  0  0  0  0  0  0
   17.9590   17.1540   22.1287 H   0  0  0  0  0  0  0  0  0  0  0  0
   19.8498   17.3614   23.1665 C   0  0  0  0  0  0  0  0  0  0  0  0
   20.5043   18.1472   23.5655 H   0  0  0  0  0  0  0  0  0  0  0  0
   19.5366   16.7265   24.0054 H   0  0  0  0  0  0  0  0  0  0  0  0
   20.4378   16.7441   22.4750 H   0  0  0  0  0  0  0  0  0  0  0  0
  1  2  1  0  0  0  0
  1  3  2  0  0  0  0
  1  4  1  0  0  0  0
  4  5  1  0  0  0  0
  4  6  2  0  0  0  0
  6  7  1  0  0  0  0
  6  8  1  0  0  0  0
  8  9  1  0  0  0  0
  8 10  1  0  0  0  0
  8 11  1  0  0  0  0
 11 12  1  0  0  0  0
 11 13  1  0  0  0  0
 11 14  1  0  0  0  0
 14 15  1  0  0  0  0
 14 16  1  0  0  0  0
 14 17  1  0  0  0  0
M  END
> <VConfSearch Rank>
996

> <Conf_Id>
45

> <Delta U+W>
0.562

> <U+W>
-52.846

> <U>
10.243

> <W>
-63.089

> <W(PB)>
-65.116

> <W(SA)>
2.026

> <Valence>
2.822

> <Coulomb>
6.637

> <VdW>
0.785

> <VdW6>
-5.216

> <VdW12>
6.001

> <Bond>
0.080

> <Angle>
2.678

> <Pdih>
0.064

> <Idih>
0.000

> <Tether>
0.000

$$$$
VeraChem MOL file


 17 16  0  0  0  0  0  0  0  0999 V2000     
   18.1133   20.3405   19.3938 C   0  0  0  0  0  0  0  0  0  0  0  0
   17.7888   21.4891   19.1632 O   0  5  0  0  0  0  0  0  0  0  0  0
   17.6002   19.3855   18.8415 O   0  0  0  0  0  0  0  0  0  0  0  0
   19.1884   20.1182   20.3982 C   0  0  0  0  0  0  0  0  0  0  0  0
   19.6044   21.0137   20.8542 H   0  0  0  0  0  0  0  0  0  0  0  0
   19.6474   18.8965   20.7531 C   0  0  0  0  0  0  0  0  0  0  0  0
   19.2361   17.9926   20.3043 H   0  0  0  0  0  0  0  0  0  0  0  0
   20.7397   18.6790   21.7772 C   0  0  0  0  0  0  0  0  0  0  0  0
   21.5094   19.4563   21.6763 H   0  0  0  0  0  0  0  0  0  0  0  0
   21.2380   17.7192   21.5854 H   0  0  0  0  0  0  0  0  0  0  0  0
   20.1746   18.6893   23.2123 C   0  0  0  0  0  0  0  0  0  0  0  0
   19.6793   19.6507   23.4074 H   0  0  0  0  0  0  0  0  0  0  0  0
   19.4065   17.9098   23.3114 H   0  0  0  0  0  0  0  0  0  0  0  0
   21.2804   18.4588   24.2619 C   0  0  0  0  0  0  0  0  0  0  0  0
   21.7712   17.4887   24.1090 H   0  0  0  0  0  0  0  0  0  0  0  0
   22.0462   19.2435   24.2045 H   0  0  0  0  0  0  0  0  0  0  0  0
   20.8596   18.4696   25.2758 H   0  0  0  0  0  0  0  0  0  0  0  0
  1  2  1  0  0  0  0
  1  3  2  0  0  0  0
  1  4  1  0  0  0  0
  4  5  1  0  0  0  0
  4  6  2  0  0  0  0
  6  7  1  0  0  0  0
  6  8  1  0  0  0  0
  8  9  1  0  0  0  0
  8 10  1  0  0  0  0
  8 11  1  0  0  0  0
 11 12  1  0  0  0  0
 11 13  1  0  0  0  0
 11 14  1  0  0  0  0
 14 15  1  0  0  0  0
 14 16  1  0  0  0  0
 14 17  1  0  0  0  0
M  END
> <VConfSearch Rank>
997

> <Conf_Id>
36

> <Delta U+W>
0.000

> <U+W>
-53.409

> <U>
9.048

> <W>
-62.457

> <W(PB)>
-64.540

> <W(SA)>
2.084

> <Valence>
2.652

> <Coulomb>
5.578

> <VdW>
0.818

> <VdW6>
-4.534

> <VdW12>
5.352

> <Bond>
0.063

> <Angle>
2.579

> <Pdih>
0.010

> <Idih>
0.000

> <Tether>
0.000

$$$$
VeraChem MOL file


 17 16  0  0  0  0  0  0  0  0999 V2000     
   16.9519   20.4917   22.1254 C   0  0  0  0  0  0  0  0  0  0  0  0
   16.9622   21.4735   21.4068 O   0  5  0  0  0  0  0  0  0  0  0  0
   16.0494   20.2532   22.9041 O   0  0  0  0  0  0  0  0  0  0  0  0
   18.0817   19.5252   22.0654 C   0  0  0  0  0  0  0  0  0  0  0  0
   18.0104   18.6698   22.7333 H   0  0  0  0  0  0  0  0  0  0  0  0
   19.1503   19.6647   21.2483 C   0  0  0  0  0  0  0  0  0  0  0  0
   19.2329   20.5191   20.5768 H   0  0  0  0  0  0  0  0  0  0  0  0
   20.2962   18.6781   21.1949 C   0  0  0  0  0  0  0  0  0  0  0  0
   20.7862   18.7363   20.2136 H   0  0  0  0  0  0  0  0  0  0  0  0
   19.9139   17.6529   21.2928 H   0  0  0  0  0  0  0  0  0  0  0  0
   21.3298   18.9565   22.3053 C   0  0  0  0  0  0  0  0  0  0  0  0
   21.7123   19.9817   22.2039 H   0  0  0  0  0  0  0  0  0  0  0  0
   20.8419   18.8945   23.2880 H   0  0  0  0  0  0  0  0  0  0  0  0
   22.5057   17.9606   22.2519 C   0  0  0  0  0  0  0  0  0  0  0  0
   23.0314   18.0245   21.2901 H   0  0  0  0  0  0  0  0  0  0  0  0
   23.2300   18.1744   23.0487 H   0  0  0  0  0  0  0  0  0  0  0  0
   22.1532   16.9291   22.3823 H   0  0  0  0  0  0  0  0  0  0  0  0
  1  2  1  0  0  0  0
  1  3  2  0  0  0  0
  1  4  1  0  0  0  0
  4  5  1  0  0  0  0
  4  6  2  0  0  0  0
  6  7  1  0  0  0  0
  6  8  1  0  0  0  0
  8  9  1  0  0  0  0
  8 10  1  0  0  0  0
  8 11  1  0  0  0  0
 11 12  1  0  0  0  0
 11 13  1  0  0  0  0
 11 14  1  0  0  0  0
 14 15  1  0  0  0  0
 14 16  1  0  0  0  0
 14 17  1  0  0  0  0
M  END
> <VConfSearch Rank>
998

> <Conf_Id>
1

> <Delta U+W>
0.030

> <U+W>
-53.378

> <U>
9.048

> <W>
-62.426

> <W(PB)>
-64.506

> <W(SA)>
2.080

> <Valence>
2.652

> <Coulomb>
5.578

> <VdW>
0.818

> <VdW6>
-4.535

> <VdW12>
5.352

> <Bond>
0.063

> <Angle>
2.579

> <Pdih>
0.010

> <Idih>
0.000

> <Tether>
0.000

$$$$
VeraChem MOL file


 17 16  0  0  0  0  0  0  0  0999 V2000     
   22.3036   17.2976   21.0185 C   0  0  0  0  0  0  0  0  0  0  0  0
   21.6660   16.4484   20.4245 O   0  5  0  0  0  0  0  0  0  0  0  0
   23.4998   17.4514   20.8662 O   0  0  0  0  0  0  0  0  0  0  0  0
   21.6120   18.1970   21.9813 C   0  0  0  0  0  0  0  0  0  0  0  0
   22.2399   18.9326   22.4787 H   0  0  0  0  0  0  0  0  0  0  0  0
   20.2874   18.1398   22.2480 C   0  0  0  0  0  0  0  0  0  0  0  0
   19.6485   17.4090   21.7528 H   0  0  0  0  0  0  0  0  0  0  0  0
   19.5898   19.0613   23.2264 C   0  0  0  0  0  0  0  0  0  0  0  0
   20.2223   19.2041   24.1130 H   0  0  0  0  0  0  0  0  0  0  0  0
   18.6629   18.5928   23.5839 H   0  0  0  0  0  0  0  0  0  0  0  0
   19.2666   20.4391   22.6078 C   0  0  0  0  0  0  0  0  0  0  0  0
   18.8604   21.0969   23.3885 H   0  0  0  0  0  0  0  0  0  0  0  0
   20.1924   20.9109   22.2503 H   0  0  0  0  0  0  0  0  0  0  0  0
   18.2508   20.3438   21.4495 C   0  0  0  0  0  0  0  0  0  0  0  0
   17.3119   19.8862   21.7873 H   0  0  0  0  0  0  0  0  0  0  0  0
   18.0190   21.3422   21.0564 H   0  0  0  0  0  0  0  0  0  0  0  0
   18.6483   19.7407   20.6227 H   0  0  0  0  0  0  0  0  0  0  0  0
  1  2  1  0  0  0  0
  1  3  2  0  0  0  0
  1  4  1  0  0  0  0
  4  5  1  0  0  0  0
  4  6  2  0  0  0  0
  6  7  1  0  0  0  0
  6  8  1  0  0  0  0
  8  9  1  0  0  0  0
  8 10  1  0  0  0  0
  8 11  1  0  0  0  0
 11 12  1  0  0  0  0
 11 13  1  0  0  0  0
 11 14  1  0  0  0  0
 14 15  1  0  0  0  0
 14 16  1  0  0  0  0
 14 17  1  0  0  0  0
M  END
> <VConfSearch Rank>
999

> <Conf_Id>
3

> <Delta U+W>
0.531

> <U+W>
-52.878

> <U>
10.067

> <W>
-62.945

> <W(PB)>
-64.982

> <W(SA)>
2.037

> <Valence>
2.779

> <Coulomb>
6.474

> <VdW>
0.815

> <VdW6>
-5.088

> <VdW12>
5.902

> <Bond>
0.078

> <Angle>
2.651

> <Pdih>
0.050

> <Idih>
0.000

> <Tether>
0.000

$$$$
VeraChem MOL file


 17 16  0  0  0  0  0  0  0  0999 V2000     
   18.0807   19.8114   19.8371 C   0  0  0  0  0  0  0  0  0  0  0  0
   18.1078   20.7534   19.0692 O   0  5  0  0  0  0  0  0  0  0  0  0
   17.0699   19.1730   20.0635 O   0  0  0  0  0  0  0  0  0  0  0  0
   19.3522   19.4403   20.5150 C   0  0  0  0  0  0  0  0  0  0  0  0
   20.2170   20.0517   20.2677 H   0  0  0  0  0  0  0  0  0  0  0  0
   19.4674   18.4184   21.3935 C   0  0  0  0  0  0  0  0  0  0  0  0
   18.6052   17.8031   21.6497 H   0  0  0  0  0  0  0  0  0  0  0  0
   20.7627   18.0448   22.0842 C   0  0  0  0  0  0  0  0  0  0  0  0
   21.6211   18.4895   21.5624 H   0  0  0  0  0  0  0  0  0  0  0  0
   20.8997   16.9568   22.0247 H   0  0  0  0  0  0  0  0  0  0  0  0
   20.7798   18.4713   23.5684 C   0  0  0  0  0  0  0  0  0  0  0  0
   19.9200   18.0290   24.0905 H   0  0  0  0  0  0  0  0  0  0  0  0
   21.6810   18.0649   24.0478 H   0  0  0  0  0  0  0  0  0  0  0  0
   20.7638   20.0046   23.7459 C   0  0  0  0  0  0  0  0  0  0  0  0
   19.8444   20.4414   23.3350 H   0  0  0  0  0  0  0  0  0  0  0  0
   20.8162   20.2707   24.8096 H   0  0  0  0  0  0  0  0  0  0  0  0
   21.6198   20.4676   23.2379 H   0  0  0  0  0  0  0  0  0  0  0  0
  1  2  1  0  0  0  0
  1  3  2  0  0  0  0
  1  4  1  0  0  0  0
  4  5  1  0  0  0  0
  4  6  2  0  0  0  0
  6  7  1  0  0  0  0
  6  8  1  0  0  0  0
  8  9  1  0  0  0  0
  8 10  1  0  0  0  0
  8 11  1  0  0  0  0
 11 12  1  0  0  0  0
 11 13  1  0  0  0  0
 11 14  1  0  0  0  0
 14 15  1  0  0  0  0
 14 16  1  0  0  0  0
 14 17  1  0  0  0  0
M  END
> <VConfSearch Rank>
1000

> <Conf_Id>
45

> <Delta U+W>
0.562

> <U+W>
-52.846

> <U>
10.243

> <W>
-63.089

> <W(PB)>
-65.116

> <W(SA)>
2.026

> <Valence>
2.822

> <Coulomb>
6.637

> <VdW>
0.785

> <VdW6>
-5.216

> <VdW12>
6.001

> <Bond>
0.080

> <Angle>
2.678

> <Pdih>
0.064

> <Idih>
0.000

> <Tether>
0.000

$$$$
