VeraChem MOL file


 17 16  0  0  0  0  0  0  0  0999 V2000     
   19.6262   18.8414   24.1383 N   0  3  0  0  0  0  0  0  0  0  0  0
   20.0581   19.1907   24.9999 H   0  0  0  0  0  0  0  0  0  0  0  0
   19.6530   17.8183   24.1874 H   0  0  0  0  0  0  0  0  0  0  0  0
   18.6402   19.1181   24.1682 H   0  0  0  0  0  0  0  0  0  0  0  0
   20.3271   19.3692   22.9024 C   0  0  0  0  0  0  0  0  0  0  0  0
   21.3758   19.0639   22.9527 H   0  0  0  0  0  0  0  0  0  0  0  0
   20.2866   20.4615   22.9320 H   0  0  0  0  0  0  0  0  0  0  0  0
   19.7035   18.8637   21.5888 C   0  0  0  0  0  0  0  0  0  0  0  0
   19.7321   17.7660   21.5695 H   0  0  0  0  0  0  0  0  0  0  0  0
   18.6464   19.1588   21.5489 H   0  0  0  0  0  0  0  0  0  0  0  0
   20.4461   19.4243   20.3560 C   0  0  0  0  0  0  0  0  0  0  0  0
   21.5050   19.1321   20.3971 H   0  0  0  0  0  0  0  0  0  0  0  0
   20.4207   20.5231   20.3764 H   0  0  0  0  0  0  0  0  0  0  0  0
   19.8261   18.9214   19.0345 C   0  0  0  0  0  0  0  0  0  0  0  0
   20.3674   19.3306   18.1716 H   0  0  0  0  0  0  0  0  0  0  0  0
   18.7755   19.2283   18.9487 H   0  0  0  0  0  0  0  0  0  0  0  0
   19.8684   17.8263   18.9695 H   0  0  0  0  0  0  0  0  0  0  0  0
  1  2  1  0  0  0  0
  1  3  1  0  0  0  0
  1  4  1  0  0  0  0
  1  5  1  0  0  0  0
  5  6  1  0  0  0  0
  5  7  1  0  0  0  0
  5  8  1  0  0  0  0
  8  9  1  0  0  0  0
  8 10  1  0  0  0  0
  8 11  1  0  0  0  0
 11 12  1  0  0  0  0
 11 13  1  0  0  0  0
 11 14  1  0  0  0  0
 14 15  1  0  0  0  0
 14 16  1  0  0  0  0
 14 17  1  0  0  0  0
M  END
> <VM2 Rank>
1

> <Conf_Id>
88

> <Probability>
28.06

> <Sum Probability>
28.06

> <Delta G>
0.000

> <G>
15.404

> <E>
-2.454

> <-TS>
17.858

> <U+W>
-15.867

> <U>
44.664

> <W>
-60.532

> <W(PB)>
-62.309

> <W(SA)>
1.777

> <Valence>
0.872

> <Coulomb>
43.648

> <VdW>
0.144

> <VdW6>
-2.370

> <VdW12>
2.515

> <Bond>
0.080

> <Angle>
0.376

> <Pdih>
0.416

> <Idih>
0.000

> <Tether>
0.000

$$$$
VeraChem MOL file


 17 16  0  0  0  0  0  0  0  0999 V2000     
   19.2949   19.3740   23.6869 N   0  3  0  0  0  0  0  0  0  0  0  0
   18.8519   20.1591   23.2014 H   0  0  0  0  0  0  0  0  0  0  0  0
   19.4572   19.6752   24.6532 H   0  0  0  0  0  0  0  0  0  0  0  0
   18.6078   18.6150   23.7241 H   0  0  0  0  0  0  0  0  0  0  0  0
   20.5806   18.9410   23.0086 C   0  0  0  0  0  0  0  0  0  0  0  0
   21.0149   18.1344   23.6056 H   0  0  0  0  0  0  0  0  0  0  0  0
   21.2744   19.7860   23.0245 H   0  0  0  0  0  0  0  0  0  0  0  0
   20.3889   18.4550   21.5582 C   0  0  0  0  0  0  0  0  0  0  0  0
   21.3497   18.0703   21.1911 H   0  0  0  0  0  0  0  0  0  0  0  0
   19.6881   17.6097   21.5442 H   0  0  0  0  0  0  0  0  0  0  0  0
   19.8905   19.5727   20.6120 C   0  0  0  0  0  0  0  0  0  0  0  0
   20.5811   20.4269   20.6525 H   0  0  0  0  0  0  0  0  0  0  0  0
   18.9108   19.9408   20.9455 H   0  0  0  0  0  0  0  0  0  0  0  0
   19.7741   19.0773   19.1543 C   0  0  0  0  0  0  0  0  0  0  0  0
   19.4189   19.8826   18.4982 H   0  0  0  0  0  0  0  0  0  0  0  0
   19.0654   18.2425   19.0761 H   0  0  0  0  0  0  0  0  0  0  0  0
   20.7458   18.7373   18.7731 H   0  0  0  0  0  0  0  0  0  0  0  0
  1  2  1  0  0  0  0
  1  3  1  0  0  0  0
  1  4  1  0  0  0  0
  1  5  1  0  0  0  0
  5  6  1  0  0  0  0
  5  7  1  0  0  0  0
  5  8  1  0  0  0  0
  8  9  1  0  0  0  0
  8 10  1  0  0  0  0
  8 11  1  0  0  0  0
 11 12  1  0  0  0  0
 11 13  1  0  0  0  0
 11 14  1  0  0  0  0
 14 15  1  0  0  0  0
 14 16  1  0  0  0  0
 14 17  1  0  0  0  0
M  END
> <VM2 Rank>
2

> <Conf_Id>
179

> <Probability>
15.64

> <Sum Probability>
43.70

> <Delta G>
0.348

> <G>
15.753

> <E>
-2.202

> <-TS>
17.955

> <U+W>
-15.616

> <U>
45.278

> <W>
-60.894

> <W(PB)>
-62.644

> <W(SA)>
1.750

> <Valence>
0.993

> <Coulomb>
44.034

> <VdW>
0.251

> <VdW6>
-2.856

> <VdW12>
3.107

> <Bond>
0.101

> <Angle>
0.434

> <Pdih>
0.458

> <Idih>
0.000

> <Tether>
0.000

$$$$
VeraChem MOL file


 17 16  0  0  0  0  0  0  0  0999 V2000     
   20.0682   18.3817   23.7016 N   0  3  0  0  0  0  0  0  0  0  0  0
   20.7281   17.7516   23.2370 H   0  0  0  0  0  0  0  0  0  0  0  0
   19.1638   17.9016   23.7349 H   0  0  0  0  0  0  0  0  0  0  0  0
   20.3861   18.4834   24.6709 H   0  0  0  0  0  0  0  0  0  0  0  0
   19.9723   19.7215   22.9970 C   0  0  0  0  0  0  0  0  0  0  0  0
   20.9608   20.1883   23.0185 H   0  0  0  0  0  0  0  0  0  0  0  0
   19.2878   20.3505   23.5727 H   0  0  0  0  0  0  0  0  0  0  0  0
   19.4751   19.6275   21.5408 C   0  0  0  0  0  0  0  0  0  0  0  0
   18.4845   19.1540   21.5213 H   0  0  0  0  0  0  0  0  0  0  0  0
   19.3421   20.6461   21.1529 H   0  0  0  0  0  0  0  0  0  0  0  0
   20.4506   18.8541   20.6226 C   0  0  0  0  0  0  0  0  0  0  0  0
   20.5634   17.8205   20.9770 H   0  0  0  0  0  0  0  0  0  0  0  0
   21.4470   19.3160   20.6690 H   0  0  0  0  0  0  0  0  0  0  0  0
   19.9628   18.8351   19.1579 C   0  0  0  0  0  0  0  0  0  0  0  0
   18.9814   18.3503   19.0745 H   0  0  0  0  0  0  0  0  0  0  0  0
   20.6662   18.2821   18.5219 H   0  0  0  0  0  0  0  0  0  0  0  0
   19.8760   19.8533   18.7566 H   0  0  0  0  0  0  0  0  0  0  0  0
  1  2  1  0  0  0  0
  1  3  1  0  0  0  0
  1  4  1  0  0  0  0
  1  5  1  0  0  0  0
  5  6  1  0  0  0  0
  5  7  1  0  0  0  0
  5  8  1  0  0  0  0
  8  9  1  0  0  0  0
  8 10  1  0  0  0  0
  8 11  1  0  0  0  0
 11 12  1  0  0  0  0
 11 13  1  0  0  0  0
 11 14  1  0  0  0  0
 14 15  1  0  0  0  0
 14 16  1  0  0  0  0
 14 17  1  0  0  0  0
M  END
> <VM2 Rank>
3

> <Conf_Id>
184

> <Probability>
15.07

> <Sum Probability>
58.77

> <Delta G>
0.371

> <G>
15.775

> <E>
-2.180

> <-TS>
17.955

> <U+W>
-15.594

> <U>
45.278

> <W>
-60.872

> <W(PB)>
-62.614

> <W(SA)>
1.742

> <Valence>
0.993

> <Coulomb>
44.034

> <VdW>
0.251

> <VdW6>
-2.855

> <VdW12>
3.107

> <Bond>
0.101

> <Angle>
0.434

> <Pdih>
0.458

> <Idih>
0.000

> <Tether>
0.000

$$$$
VeraChem MOL file


 17 16  0  0  0  0  0  0  0  0999 V2000     
   19.5540   18.9866   24.0026 N   0  3  0  0  0  0  0  0  0  0  0  0
   18.9633   18.1495   24.0130 H   0  0  0  0  0  0  0  0  0  0  0  0
   19.0938   19.6815   24.5994 H   0  0  0  0  0  0  0  0  0  0  0  0
   20.4352   18.7384   24.4625 H   0  0  0  0  0  0  0  0  0  0  0  0
   19.7745   19.5083   22.5967 C   0  0  0  0  0  0  0  0  0  0  0  0
   20.3839   20.4136   22.6639 H   0  0  0  0  0  0  0  0  0  0  0  0
   18.8001   19.7807   22.1829 H   0  0  0  0  0  0  0  0  0  0  0  0
   20.4648   18.4874   21.6720 C   0  0  0  0  0  0  0  0  0  0  0  0
   21.4239   18.1903   22.1165 H   0  0  0  0  0  0  0  0  0  0  0  0
   19.8535   17.5775   21.6058 H   0  0  0  0  0  0  0  0  0  0  0  0
   20.7195   19.0454   20.2522 C   0  0  0  0  0  0  0  0  0  0  0  0
   21.2830   18.3013   19.6720 H   0  0  0  0  0  0  0  0  0  0  0  0
   21.3589   19.9374   20.3141 H   0  0  0  0  0  0  0  0  0  0  0  0
   19.4163   19.3923   19.4965 C   0  0  0  0  0  0  0  0  0  0  0  0
   19.6408   19.7256   18.4749 H   0  0  0  0  0  0  0  0  0  0  0  0
   18.8642   20.1998   19.9938 H   0  0  0  0  0  0  0  0  0  0  0  0
   18.7559   18.5183   19.4258 H   0  0  0  0  0  0  0  0  0  0  0  0
  1  2  1  0  0  0  0
  1  3  1  0  0  0  0
  1  4  1  0  0  0  0
  1  5  1  0  0  0  0
  5  6  1  0  0  0  0
  5  7  1  0  0  0  0
  5  8  1  0  0  0  0
  8  9  1  0  0  0  0
  8 10  1  0  0  0  0
  8 11  1  0  0  0  0
 11 12  1  0  0  0  0
 11 13  1  0  0  0  0
 11 14  1  0  0  0  0
 14 15  1  0  0  0  0
 14 16  1  0  0  0  0
 14 17  1  0  0  0  0
M  END
> <VM2 Rank>
4

> <Conf_Id>
242

> <Probability>
15.00

> <Sum Probability>
73.77

> <Delta G>
0.374

> <G>
15.778

> <E>
-2.177

> <-TS>
17.955

> <U+W>
-15.590

> <U>
45.174

> <W>
-60.765

> <W(PB)>
-62.519

> <W(SA)>
1.754

> <Valence>
1.161

> <Coulomb>
43.789

> <VdW>
0.224

> <VdW6>
-2.897

> <VdW12>
3.121

> <Bond>
0.100

> <Angle>
0.500

> <Pdih>
0.561

> <Idih>
0.000

> <Tether>
0.000

$$$$
VeraChem MOL file


 17 16  0  0  0  0  0  0  0  0999 V2000     
   19.7513   18.7333   24.0063 N   0  3  0  0  0  0  0  0  0  0  0  0
   18.7953   18.3651   24.0098 H   0  0  0  0  0  0  0  0  0  0  0  0
   19.7195   19.6568   24.4489 H   0  0  0  0  0  0  0  0  0  0  0  0
   20.3041   18.1285   24.6224 H   0  0  0  0  0  0  0  0  0  0  0  0
   20.3313   18.7938   22.6073 C   0  0  0  0  0  0  0  0  0  0  0  0
   20.3632   17.7750   22.2126 H   0  0  0  0  0  0  0  0  0  0  0  0
   21.3570   19.1649   22.6824 H   0  0  0  0  0  0  0  0  0  0  0  0
   19.5234   19.6953   21.6541 C   0  0  0  0  0  0  0  0  0  0  0  0
   18.4928   19.3235   21.5799 H   0  0  0  0  0  0  0  0  0  0  0  0
   19.4633   20.7060   22.0792 H   0  0  0  0  0  0  0  0  0  0  0  0
   20.1470   19.7799   20.2413 C   0  0  0  0  0  0  0  0  0  0  0  0
   21.1671   20.1835   20.3104 H   0  0  0  0  0  0  0  0  0  0  0  0
   19.5714   20.4971   19.6394 H   0  0  0  0  0  0  0  0  0  0  0  0
   20.1760   18.4177   19.5110 C   0  0  0  0  0  0  0  0  0  0  0  0
   20.8171   17.6947   20.0310 H   0  0  0  0  0  0  0  0  0  0  0  0
   20.5684   18.5352   18.4926 H   0  0  0  0  0  0  0  0  0  0  0  0
   19.1682   17.9892   19.4340 H   0  0  0  0  0  0  0  0  0  0  0  0
  1  2  1  0  0  0  0
  1  3  1  0  0  0  0
  1  4  1  0  0  0  0
  1  5  1  0  0  0  0
  5  6  1  0  0  0  0
  5  7  1  0  0  0  0
  5  8  1  0  0  0  0
  8  9  1  0  0  0  0
  8 10  1  0  0  0  0
  8 11  1  0  0  0  0
 11 12  1  0  0  0  0
 11 13  1  0  0  0  0
 11 14  1  0  0  0  0
 14 15  1  0  0  0  0
 14 16  1  0  0  0  0
 14 17  1  0  0  0  0
M  END
> <VM2 Rank>
5

> <Conf_Id>
69

> <Probability>
14.11

> <Sum Probability>
87.88

> <Delta G>
0.410

> <G>
15.814

> <E>
-2.140

> <-TS>
17.955

> <U+W>
-15.554

> <U>
45.174

> <W>
-60.728

> <W(PB)>
-62.487

> <W(SA)>
1.758

> <Valence>
1.161

> <Coulomb>
43.789

> <VdW>
0.224

> <VdW6>
-2.897

> <VdW12>
3.121

> <Bond>
0.100

> <Angle>
0.500

> <Pdih>
0.561

> <Idih>
0.000

> <Tether>
0.000

$$$$
VeraChem MOL file


 17 16  0  0  0  0  0  0  0  0999 V2000     
   19.6053   18.3343   23.4320 N   0  3  0  0  0  0  0  0  0  0  0  0
   18.8596   18.2946   24.1341 H   0  0  0  0  0  0  0  0  0  0  0  0
   20.4850   18.1451   23.9215 H   0  0  0  0  0  0  0  0  0  0  0  0
   19.4468   17.5580   22.7834 H   0  0  0  0  0  0  0  0  0  0  0  0
   19.6334   19.6697   22.7138 C   0  0  0  0  0  0  0  0  0  0  0  0
   19.7677   20.4503   23.4675 H   0  0  0  0  0  0  0  0  0  0  0  0
   18.6598   19.8211   22.2405 H   0  0  0  0  0  0  0  0  0  0  0  0
   20.7498   19.7842   21.6553 C   0  0  0  0  0  0  0  0  0  0  0  0
   20.7340   20.7992   21.2366 H   0  0  0  0  0  0  0  0  0  0  0  0
   21.7253   19.6714   22.1467 H   0  0  0  0  0  0  0  0  0  0  0  0
   20.6330   18.7559   20.5027 C   0  0  0  0  0  0  0  0  0  0  0  0
   20.7394   17.7354   20.8949 H   0  0  0  0  0  0  0  0  0  0  0  0
   21.4736   18.9037   19.8103 H   0  0  0  0  0  0  0  0  0  0  0  0
   19.3075   18.8759   19.7162 C   0  0  0  0  0  0  0  0  0  0  0  0
   18.4406   18.6461   20.3482 H   0  0  0  0  0  0  0  0  0  0  0  0
   19.2963   18.1750   18.8714 H   0  0  0  0  0  0  0  0  0  0  0  0
   19.1785   19.8886   19.3125 H   0  0  0  0  0  0  0  0  0  0  0  0
  1  2  1  0  0  0  0
  1  3  1  0  0  0  0
  1  4  1  0  0  0  0
  1  5  1  0  0  0  0
  5  6  1  0  0  0  0
  5  7  1  0  0  0  0
  5  8  1  0  0  0  0
  8  9  1  0  0  0  0
  8 10  1  0  0  0  0
  8 11  1  0  0  0  0
 11 12  1  0  0  0  0
 11 13  1  0  0  0  0
 11 14  1  0  0  0  0
 14 15  1  0  0  0  0
 14 16  1  0  0  0  0
 14 17  1  0  0  0  0
M  END
> <VM2 Rank>
6

> <Conf_Id>
246

> <Probability>
6.04

> <Sum Probability>
93.92

> <Delta G>
0.915

> <G>
16.320

> <E>
-1.811

> <-TS>
18.131

> <U+W>
-15.225

> <U>
45.697

> <W>
-60.921

> <W(PB)>
-62.633

> <W(SA)>
1.712

> <Valence>
1.263

> <Coulomb>
44.179

> <VdW>
0.255

> <VdW6>
-3.552

> <VdW12>
3.807

> <Bond>
0.125

> <Angle>
0.616

> <Pdih>
0.521

> <Idih>
0.000

> <Tether>
0.000

$$$$
VeraChem MOL file


 17 16  0  0  0  0  0  0  0  0999 V2000     
   19.1396   18.9321   23.4232 N   0  3  0  0  0  0  0  0  0  0  0  0
   18.3575   18.9561   22.7628 H   0  0  0  0  0  0  0  0  0  0  0  0
   19.1645   19.8403   23.8965 H   0  0  0  0  0  0  0  0  0  0  0  0
   18.9087   18.2317   24.1351 H   0  0  0  0  0  0  0  0  0  0  0  0
   20.4514   18.6196   22.7294 C   0  0  0  0  0  0  0  0  0  0  0  0
   20.3668   17.6300   22.2730 H   0  0  0  0  0  0  0  0  0  0  0  0
   21.2304   18.5729   23.4953 H   0  0  0  0  0  0  0  0  0  0  0  0
   20.8508   19.6545   21.6572 C   0  0  0  0  0  0  0  0  0  0  0  0
   20.9731   20.6368   22.1324 H   0  0  0  0  0  0  0  0  0  0  0  0
   21.8370   19.3835   21.2576 H   0  0  0  0  0  0  0  0  0  0  0  0
   19.8418   19.7713   20.4876 C   0  0  0  0  0  0  0  0  0  0  0  0
   20.2006   20.5375   19.7861 H   0  0  0  0  0  0  0  0  0  0  0  0
   18.8728   20.1310   20.8594 H   0  0  0  0  0  0  0  0  0  0  0  0
   19.6453   18.4425   19.7225 C   0  0  0  0  0  0  0  0  0  0  0  0
   18.9751   18.5873   18.8653 H   0  0  0  0  0  0  0  0  0  0  0  0
   19.2014   17.6697   20.3626 H   0  0  0  0  0  0  0  0  0  0  0  0
   20.6013   18.0626   19.3394 H   0  0  0  0  0  0  0  0  0  0  0  0
  1  2  1  0  0  0  0
  1  3  1  0  0  0  0
  1  4  1  0  0  0  0
  1  5  1  0  0  0  0
  5  6  1  0  0  0  0
  5  7  1  0  0  0  0
  5  8  1  0  0  0  0
  8  9  1  0  0  0  0
  8 10  1  0  0  0  0
  8 11  1  0  0  0  0
 11 12  1  0  0  0  0
 11 13  1  0  0  0  0
 11 14  1  0  0  0  0
 14 15  1  0  0  0  0
 14 16  1  0  0  0  0
 14 17  1  0  0  0  0
M  END
> <VM2 Rank>
7

> <Conf_Id>
74

> <Probability>
5.61

> <Sum Probability>
99.53

> <Delta G>
0.960

> <G>
16.365

> <E>
-1.766

> <-TS>
18.131

> <U+W>
-15.180

> <U>
45.697

> <W>
-60.876

> <W(PB)>
-62.587

> <W(SA)>
1.710

> <Valence>
1.263

> <Coulomb>
44.179

> <VdW>
0.255

> <VdW6>
-3.552

> <VdW12>
3.807

> <Bond>
0.125

> <Angle>
0.616

> <Pdih>
0.521

> <Idih>
0.000

> <Tether>
0.000

$$$$
VeraChem MOL file


 17 16  0  0  0  0  0  0  0  0999 V2000     
   19.4442   18.2039   23.2130 N   0  3  0  0  0  0  0  0  0  0  0  0
   19.3472   17.5463   22.4351 H   0  0  0  0  0  0  0  0  0  0  0  0
   18.5073   18.5599   23.4252 H   0  0  0  0  0  0  0  0  0  0  0  0
   19.7489   17.6640   24.0294 H   0  0  0  0  0  0  0  0  0  0  0  0
   20.4118   19.3246   22.8846 C   0  0  0  0  0  0  0  0  0  0  0  0
   21.4055   18.8939   22.7352 H   0  0  0  0  0  0  0  0  0  0  0  0
   20.4547   19.9770   23.7610 H   0  0  0  0  0  0  0  0  0  0  0  0
   20.0155   20.1640   21.6518 C   0  0  0  0  0  0  0  0  0  0  0  0
   18.9415   20.3906   21.6811 H   0  0  0  0  0  0  0  0  0  0  0  0
   20.5295   21.1315   21.7262 H   0  0  0  0  0  0  0  0  0  0  0  0
   20.3950   19.5262   20.2909 C   0  0  0  0  0  0  0  0  0  0  0  0
   21.4811   19.3627   20.2495 H   0  0  0  0  0  0  0  0  0  0  0  0
   20.1660   20.2482   19.4945 H   0  0  0  0  0  0  0  0  0  0  0  0
   19.6625   18.2013   19.9797 C   0  0  0  0  0  0  0  0  0  0  0  0
   20.0157   17.3859   20.6215 H   0  0  0  0  0  0  0  0  0  0  0  0
   19.8494   17.8980   18.9413 H   0  0  0  0  0  0  0  0  0  0  0  0
   18.5770   18.3069   20.1053 H   0  0  0  0  0  0  0  0  0  0  0  0
  1  2  1  0  0  0  0
  1  3  1  0  0  0  0
  1  4  1  0  0  0  0
  1  5  1  0  0  0  0
  5  6  1  0  0  0  0
  5  7  1  0  0  0  0
  5  8  1  0  0  0  0
  8  9  1  0  0  0  0
  8 10  1  0  0  0  0
  8 11  1  0  0  0  0
 11 12  1  0  0  0  0
 11 13  1  0  0  0  0
 11 14  1  0  0  0  0
 14 15  1  0  0  0  0
 14 16  1  0  0  0  0
 14 17  1  0  0  0  0
M  END
> <VM2 Rank>
8

> <Conf_Id>
19

> <Probability>
0.25

> <Sum Probability>
99.77

> <Delta G>
2.822

> <G>
18.226

> <E>
0.211

> <-TS>
18.016

> <U+W>
-13.203

> <U>
47.423

> <W>
-60.626

> <W(PB)>
-62.328

> <W(SA)>
1.702

> <Valence>
2.414

> <Coulomb>
44.831

> <VdW>
0.178

> <VdW6>
-3.743

> <VdW12>
3.921

> <Bond>
0.138

> <Angle>
0.941

> <Pdih>
1.335

> <Idih>
0.000

> <Tether>
0.000

$$$$
VeraChem MOL file


 17 16  0  0  0  0  0  0  0  0999 V2000     
   18.9770   18.8033   23.2041 N   0  3  0  0  0  0  0  0  0  0  0  0
   18.5161   19.2457   24.0058 H   0  0  0  0  0  0  0  0  0  0  0  0
   19.0903   17.8120   23.4365 H   0  0  0  0  0  0  0  0  0  0  0  0
   18.3270   18.8552   22.4157 H   0  0  0  0  0  0  0  0  0  0  0  0
   20.3047   19.4620   22.8825 C   0  0  0  0  0  0  0  0  0  0  0  0
   20.9352   19.3608   23.7701 H   0  0  0  0  0  0  0  0  0  0  0  0
   20.1319   20.5278   22.7107 H   0  0  0  0  0  0  0  0  0  0  0  0
   21.0396   18.8501   21.6713 C   0  0  0  0  0  0  0  0  0  0  0  0
   22.1022   19.1137   21.7561 H   0  0  0  0  0  0  0  0  0  0  0  0
   20.9964   17.7540   21.7203 H   0  0  0  0  0  0  0  0  0  0  0  0
   20.5335   19.3485   20.2935 C   0  0  0  0  0  0  0  0  0  0  0  0
   21.1889   18.9353   19.5140 H   0  0  0  0  0  0  0  0  0  0  0  0
   20.6411   20.4407   20.2333 H   0  0  0  0  0  0  0  0  0  0  0  0
   19.0743   18.9561   19.9686 C   0  0  0  0  0  0  0  0  0  0  0  0
   18.9094   17.8803   20.1120 H   0  0  0  0  0  0  0  0  0  0  0  0
   18.8408   19.1920   18.9222 H   0  0  0  0  0  0  0  0  0  0  0  0
   18.3609   19.5097   20.5900 H   0  0  0  0  0  0  0  0  0  0  0  0
  1  2  1  0  0  0  0
  1  3  1  0  0  0  0
  1  4  1  0  0  0  0
  1  5  1  0  0  0  0
  5  6  1  0  0  0  0
  5  7  1  0  0  0  0
  5  8  1  0  0  0  0
  8  9  1  0  0  0  0
  8 10  1  0  0  0  0
  8 11  1  0  0  0  0
 11 12  1  0  0  0  0
 11 13  1  0  0  0  0
 11 14  1  0  0  0  0
 14 15  1  0  0  0  0
 14 16  1  0  0  0  0
 14 17  1  0  0  0  0
M  END
> <VM2 Rank>
9

> <Conf_Id>
44

> <Probability>
0.23

> <Sum Probability>
100.00

> <Delta G>
2.873

> <G>
18.277

> <E>
0.261

> <-TS>
18.016

> <U+W>
-13.153

> <U>
47.423

> <W>
-60.576

> <W(PB)>
-62.262

> <W(SA)>
1.687

> <Valence>
2.414

> <Coulomb>
44.831

> <VdW>
0.178

> <VdW6>
-3.743

> <VdW12>
3.922

> <Bond>
0.138

> <Angle>
0.941

> <Pdih>
1.335

> <Idih>
0.000

> <Tether>
0.000

$$$$
