VeraChem MOL file


 29 28  0  0  0  0  0  0  0  0999 V2000     
   19.5305   19.9313   18.7440 C   0  0  0  0  0  0  0  0  0  0  0  0
   18.5905   20.4925   18.8260 H   0  0  0  0  0  0  0  0  0  0  0  0
   20.3584   20.6520   18.7240 H   0  0  0  0  0  0  0  0  0  0  0  0
   19.5231   19.3998   17.7835 H   0  0  0  0  0  0  0  0  0  0  0  0
   19.6877   18.9385   19.9150 C   0  0  0  0  0  0  0  0  0  0  0  0
   20.6190   18.3689   19.7876 H   0  0  0  0  0  0  0  0  0  0  0  0
   18.8647   18.2105   19.8888 H   0  0  0  0  0  0  0  0  0  0  0  0
   19.7011   19.6615   21.2799 C   0  0  0  0  0  0  0  0  0  0  0  0
   20.5239   20.3896   21.3005 H   0  0  0  0  0  0  0  0  0  0  0  0
   18.7694   20.2312   21.4016 H   0  0  0  0  0  0  0  0  0  0  0  0
   19.8585   18.6704   22.4551 C   0  0  0  0  0  0  0  0  0  0  0  0
   20.7899   18.1006   22.3314 H   0  0  0  0  0  0  0  0  0  0  0  0
   19.0353   17.9428   22.4339 H   0  0  0  0  0  0  0  0  0  0  0  0
   19.8725   19.3943   23.8204 C   0  0  0  0  0  0  0  0  0  0  0  0
   20.6981   20.1192   23.8421 H   0  0  0  0  0  0  0  0  0  0  0  0
   18.9419   19.9661   23.9337 H   0  0  0  0  0  0  0  0  0  0  0  0
   20.0289   18.3991   24.9958 C   0  0  0  0  0  0  0  0  0  0  0  0
   20.9355   17.8003   24.8354 H   0  0  0  0  0  0  0  0  0  0  0  0
   19.1856   17.6956   25.0018 H   0  0  0  0  0  0  0  0  0  0  0  0
   20.1314   19.0990   26.3682 C   0  0  2  0  0  0  0  0  0  0  0  0
   20.9619   19.8106   26.3293 H   0  0  0  0  0  0  0  0  0  0  0  0
   20.4280   18.0709   27.4716 C   0  0  0  0  0  0  0  0  0  0  0  0
   20.5382   18.5660   28.4442 H   0  0  0  0  0  0  0  0  0  0  0  0
   19.6207   17.3322   27.5534 H   0  0  0  0  0  0  0  0  0  0  0  0
   21.3622   17.5344   27.2637 H   0  0  0  0  0  0  0  0  0  0  0  0
   18.8975   19.8911   26.7041 N   0  3  0  0  0  0  0  0  0  0  0  0
   18.9908   20.3638   27.6077 H   0  0  0  0  0  0  0  0  0  0  0  0
   18.0710   19.2897   26.7565 H   0  0  0  0  0  0  0  0  0  0  0  0
   18.7119   20.6103   25.9998 H   0  0  0  0  0  0  0  0  0  0  0  0
  1  2  1  0  0  0  0
  1  3  1  0  0  0  0
  1  4  1  0  0  0  0
  1  5  1  0  0  0  0
  5  6  1  0  0  0  0
  5  7  1  0  0  0  0
  5  8  1  0  0  0  0
  8  9  1  0  0  0  0
  8 10  1  0  0  0  0
  8 11  1  0  0  0  0
 11 12  1  0  0  0  0
 11 13  1  0  0  0  0
 11 14  1  0  0  0  0
 14 15  1  0  0  0  0
 14 16  1  0  0  0  0
 14 17  1  0  0  0  0
 17 18  1  0  0  0  0
 17 19  1  0  0  0  0
 17 20  1  0  0  0  0
 20 21  1  0  0  0  0
 20 22  1  0  0  0  0
 22 23  1  0  0  0  0
 22 24  1  0  0  0  0
 22 25  1  0  0  0  0
 20 26  1  0  0  0  0
 26 27  1  0  0  0  0
 26 28  1  0  0  0  0
 26 29  1  0  0  0  0
M  END
> <VM2 Rank>
1

> <Conf_Id>
402

> <Probability>
10.66

> <Sum Probability>
10.66

> <Delta G>
0.000

> <G>
33.702

> <E>
-3.682

> <-TS>
37.384

> <U+W>
-27.827

> <U>
23.963

> <W>
-51.788

> <W(PB)>
-54.342

> <W(SA)>
2.554

> <Valence>
3.166

> <Coulomb>
19.734

> <VdW>
1.063

> <VdW6>
-7.938

> <VdW12>
9.001

> <Bond>
0.188

> <Angle>
0.880

> <Pdih>
2.098

> <Idih>
0.000

> <Tether>
0.000

$$$$
VeraChem MOL file


 29 28  0  0  0  0  0  0  0  0999 V2000     
   19.0308   19.3523   18.8498 C   0  0  0  0  0  0  0  0  0  0  0  0
   18.5002   18.3915   18.8268 H   0  0  0  0  0  0  0  0  0  0  0  0
   18.2859   20.1519   18.9554 H   0  0  0  0  0  0  0  0  0  0  0  0
   19.5318   19.4840   17.8820 H   0  0  0  0  0  0  0  0  0  0  0  0
   20.0549   19.3927   20.0036 C   0  0  0  0  0  0  0  0  0  0  0  0
   20.5928   20.3509   19.9804 H   0  0  0  0  0  0  0  0  0  0  0  0
   20.8054   18.6040   19.8528 H   0  0  0  0  0  0  0  0  0  0  0  0
   19.3751   19.2095   21.3785 C   0  0  0  0  0  0  0  0  0  0  0  0
   18.6245   19.9987   21.5237 H   0  0  0  0  0  0  0  0  0  0  0  0
   18.8368   18.2517   21.3960 H   0  0  0  0  0  0  0  0  0  0  0  0
   20.3977   19.2492   22.5364 C   0  0  0  0  0  0  0  0  0  0  0  0
   20.9356   20.2072   22.5173 H   0  0  0  0  0  0  0  0  0  0  0  0
   21.1481   18.4600   22.3898 H   0  0  0  0  0  0  0  0  0  0  0  0
   19.7173   19.0657   23.9118 C   0  0  0  0  0  0  0  0  0  0  0  0
   18.9680   19.8561   24.0512 H   0  0  0  0  0  0  0  0  0  0  0  0
   19.1790   18.1088   23.9191 H   0  0  0  0  0  0  0  0  0  0  0  0
   20.7490   19.1031   25.0692 C   0  0  0  0  0  0  0  0  0  0  0  0
   21.3132   20.0437   25.0189 H   0  0  0  0  0  0  0  0  0  0  0  0
   21.4853   18.3013   24.9249 H   0  0  0  0  0  0  0  0  0  0  0  0
   20.1434   18.9722   26.4866 C   0  0  2  0  0  0  0  0  0  0  0  0
   20.9693   19.0447   27.2010 H   0  0  0  0  0  0  0  0  0  0  0  0
   19.4612   17.6099   26.7012 C   0  0  0  0  0  0  0  0  0  0  0  0
   19.1633   17.4915   27.7502 H   0  0  0  0  0  0  0  0  0  0  0  0
   18.5611   17.5050   26.0840 H   0  0  0  0  0  0  0  0  0  0  0  0
   20.1453   16.7882   26.4551 H   0  0  0  0  0  0  0  0  0  0  0  0
   19.2066   20.1014   26.8169 N   0  3  0  0  0  0  0  0  0  0  0  0
   18.8633   20.0333   27.7793 H   0  0  0  0  0  0  0  0  0  0  0  0
   18.3913   20.1000   26.1991 H   0  0  0  0  0  0  0  0  0  0  0  0
   19.6664   21.0113   26.7196 H   0  0  0  0  0  0  0  0  0  0  0  0
  1  2  1  0  0  0  0
  1  3  1  0  0  0  0
  1  4  1  0  0  0  0
  1  5  1  0  0  0  0
  5  6  1  0  0  0  0
  5  7  1  0  0  0  0
  5  8  1  0  0  0  0
  8  9  1  0  0  0  0
  8 10  1  0  0  0  0
  8 11  1  0  0  0  0
 11 12  1  0  0  0  0
 11 13  1  0  0  0  0
 11 14  1  0  0  0  0
 14 15  1  0  0  0  0
 14 16  1  0  0  0  0
 14 17  1  0  0  0  0
 17 18  1  0  0  0  0
 17 19  1  0  0  0  0
 17 20  1  0  0  0  0
 20 21  1  0  0  0  0
 20 22  1  0  0  0  0
 22 23  1  0  0  0  0
 22 24  1  0  0  0  0
 22 25  1  0  0  0  0
 20 26  1  0  0  0  0
 26 27  1  0  0  0  0
 26 28  1  0  0  0  0
 26 29  1  0  0  0  0
M  END
> <VM2 Rank>
2

> <Conf_Id>
399

> <Probability>
5.23

> <Sum Probability>
15.89

> <Delta G>
0.425

> <G>
34.127

> <E>
-3.403

> <-TS>
37.530

> <U+W>
-27.548

> <U>
24.513

> <W>
-52.061

> <W(PB)>
-54.558

> <W(SA)>
2.497

> <Valence>
3.678

> <Coulomb>
19.662

> <VdW>
1.174

> <VdW6>
-8.569

> <VdW12>
9.743

> <Bond>
0.224

> <Angle>
1.211

> <Pdih>
2.243

> <Idih>
0.000

> <Tether>
0.000

$$$$
VeraChem MOL file


 29 28  0  0  0  0  0  0  0  0999 V2000     
   20.2031   19.4674   18.6904 C   0  0  0  0  0  0  0  0  0  0  0  0
   20.5985   20.4914   18.7045 H   0  0  0  0  0  0  0  0  0  0  0  0
   21.0525   18.7734   18.6438 H   0  0  0  0  0  0  0  0  0  0  0  0
   19.6169   19.3449   17.7704 H   0  0  0  0  0  0  0  0  0  0  0  0
   19.3302   19.1928   19.9333 C   0  0  0  0  0  0  0  0  0  0  0  0
   18.9221   18.1741   19.8744 H   0  0  0  0  0  0  0  0  0  0  0  0
   18.4716   19.8789   19.9345 H   0  0  0  0  0  0  0  0  0  0  0  0
   20.1320   19.3585   21.2431 C   0  0  0  0  0  0  0  0  0  0  0  0
   20.9904   18.6726   21.2361 H   0  0  0  0  0  0  0  0  0  0  0  0
   20.5398   20.3775   21.2964 H   0  0  0  0  0  0  0  0  0  0  0  0
   19.2613   19.0843   22.4899 C   0  0  0  0  0  0  0  0  0  0  0  0
   18.8542   18.0651   22.4360 H   0  0  0  0  0  0  0  0  0  0  0  0
   18.4026   19.7700   22.4947 H   0  0  0  0  0  0  0  0  0  0  0  0
   20.0638   19.2507   23.8002 C   0  0  0  0  0  0  0  0  0  0  0  0
   20.9233   18.5679   23.7813 H   0  0  0  0  0  0  0  0  0  0  0  0
   20.4665   20.2716   23.8563 H   0  0  0  0  0  0  0  0  0  0  0  0
   19.1902   18.9708   25.0478 C   0  0  0  0  0  0  0  0  0  0  0  0
   18.8392   17.9305   25.0284 H   0  0  0  0  0  0  0  0  0  0  0  0
   18.2937   19.6027   24.9953 H   0  0  0  0  0  0  0  0  0  0  0  0
   19.9086   19.2524   26.3872 C   0  0  2  0  0  0  0  0  0  0  0  0
   20.2850   20.2797   26.3655 H   0  0  0  0  0  0  0  0  0  0  0  0
   21.0972   18.3024   26.6195 C   0  0  0  0  0  0  0  0  0  0  0  0
   20.7790   17.2530   26.5862 H   0  0  0  0  0  0  0  0  0  0  0  0
   21.8787   18.4492   25.8651 H   0  0  0  0  0  0  0  0  0  0  0  0
   21.5542   18.4882   27.5994 H   0  0  0  0  0  0  0  0  0  0  0  0
   18.9495   19.1766   27.5426 N   0  3  0  0  0  0  0  0  0  0  0  0
   19.4123   19.4013   28.4281 H   0  0  0  0  0  0  0  0  0  0  0  0
   18.5499   18.2389   27.6361 H   0  0  0  0  0  0  0  0  0  0  0  0
   18.1715   19.8332   27.4306 H   0  0  0  0  0  0  0  0  0  0  0  0
  1  2  1  0  0  0  0
  1  3  1  0  0  0  0
  1  4  1  0  0  0  0
  1  5  1  0  0  0  0
  5  6  1  0  0  0  0
  5  7  1  0  0  0  0
  5  8  1  0  0  0  0
  8  9  1  0  0  0  0
  8 10  1  0  0  0  0
  8 11  1  0  0  0  0
 11 12  1  0  0  0  0
 11 13  1  0  0  0  0
 11 14  1  0  0  0  0
 14 15  1  0  0  0  0
 14 16  1  0  0  0  0
 14 17  1  0  0  0  0
 17 18  1  0  0  0  0
 17 19  1  0  0  0  0
 17 20  1  0  0  0  0
 20 21  1  0  0  0  0
 20 22  1  0  0  0  0
 22 23  1  0  0  0  0
 22 24  1  0  0  0  0
 22 25  1  0  0  0  0
 20 26  1  0  0  0  0
 26 27  1  0  0  0  0
 26 28  1  0  0  0  0
 26 29  1  0  0  0  0
M  END
> <VM2 Rank>
3

> <Conf_Id>
58

> <Probability>
5.21

> <Sum Probability>
21.10

> <Delta G>
0.427

> <G>
34.129

> <E>
-3.270

> <-TS>
37.399

> <U+W>
-27.414

> <U>
24.279

> <W>
-51.694

> <W(PB)>
-54.271

> <W(SA)>
2.577

> <Valence>
3.709

> <Coulomb>
19.380

> <VdW>
1.191

> <VdW6>
-8.093

> <VdW12>
9.284

> <Bond>
0.200

> <Angle>
1.161

> <Pdih>
2.348

> <Idih>
0.000

> <Tether>
0.000

$$$$
VeraChem MOL file


 29 28  0  0  0  0  0  0  0  0999 V2000     
   18.8289   18.7942   19.4037 C   0  0  0  0  0  0  0  0  0  0  0  0
   18.6832   17.8741   19.9831 H   0  0  0  0  0  0  0  0  0  0  0  0
   17.9439   19.4297   19.5381 H   0  0  0  0  0  0  0  0  0  0  0  0
   18.8818   18.5118   18.3443 H   0  0  0  0  0  0  0  0  0  0  0  0
   20.1157   19.5362   19.8305 C   0  0  0  0  0  0  0  0  0  0  0  0
   20.2824   20.3786   19.1448 H   0  0  0  0  0  0  0  0  0  0  0  0
   20.9820   18.8698   19.7152 H   0  0  0  0  0  0  0  0  0  0  0  0
   20.0614   20.0784   21.2791 C   0  0  0  0  0  0  0  0  0  0  0  0
   20.9615   20.6823   21.4591 H   0  0  0  0  0  0  0  0  0  0  0  0
   19.2058   20.7597   21.3837 H   0  0  0  0  0  0  0  0  0  0  0  0
   19.9769   18.9655   22.3510 C   0  0  0  0  0  0  0  0  0  0  0  0
   20.8047   18.2570   22.2094 H   0  0  0  0  0  0  0  0  0  0  0  0
   19.0455   18.3976   22.2275 H   0  0  0  0  0  0  0  0  0  0  0  0
   20.0307   19.5438   23.7832 C   0  0  0  0  0  0  0  0  0  0  0  0
   20.9656   20.1057   23.9169 H   0  0  0  0  0  0  0  0  0  0  0  0
   19.2068   20.2582   23.9131 H   0  0  0  0  0  0  0  0  0  0  0  0
   19.9407   18.4306   24.8551 C   0  0  0  0  0  0  0  0  0  0  0  0
   20.7388   17.6983   24.6738 H   0  0  0  0  0  0  0  0  0  0  0  0
   18.9902   17.8906   24.7512 H   0  0  0  0  0  0  0  0  0  0  0  0
   20.0775   18.9690   26.2957 C   0  0  2  0  0  0  0  0  0  0  0  0
   21.0191   19.5222   26.3672 H   0  0  0  0  0  0  0  0  0  0  0  0
   20.1238   17.8055   27.2990 C   0  0  0  0  0  0  0  0  0  0  0  0
   19.1977   17.2178   27.2683 H   0  0  0  0  0  0  0  0  0  0  0  0
   20.9625   17.1335   27.0782 H   0  0  0  0  0  0  0  0  0  0  0  0
   20.2576   18.1796   28.3215 H   0  0  0  0  0  0  0  0  0  0  0  0
   18.9804   19.9328   26.6567 N   0  3  0  0  0  0  0  0  0  0  0  0
   18.0610   19.4857   26.6101 H   0  0  0  0  0  0  0  0  0  0  0  0
   18.9656   20.7364   26.0229 H   0  0  0  0  0  0  0  0  0  0  0  0
   19.0981   20.2945   27.6075 H   0  0  0  0  0  0  0  0  0  0  0  0
  1  2  1  0  0  0  0
  1  3  1  0  0  0  0
  1  4  1  0  0  0  0
  1  5  1  0  0  0  0
  5  6  1  0  0  0  0
  5  7  1  0  0  0  0
  5  8  1  0  0  0  0
  8  9  1  0  0  0  0
  8 10  1  0  0  0  0
  8 11  1  0  0  0  0
 11 12  1  0  0  0  0
 11 13  1  0  0  0  0
 11 14  1  0  0  0  0
 14 15  1  0  0  0  0
 14 16  1  0  0  0  0
 14 17  1  0  0  0  0
 17 18  1  0  0  0  0
 17 19  1  0  0  0  0
 17 20  1  0  0  0  0
 20 21  1  0  0  0  0
 20 22  1  0  0  0  0
 22 23  1  0  0  0  0
 22 24  1  0  0  0  0
 22 25  1  0  0  0  0
 20 26  1  0  0  0  0
 26 27  1  0  0  0  0
 26 28  1  0  0  0  0
 26 29  1  0  0  0  0
M  END
> <VM2 Rank>
4

> <Conf_Id>
1220

> <Probability>
4.02

> <Sum Probability>
25.12

> <Delta G>
0.582

> <G>
34.284

> <E>
-3.211

> <-TS>
37.495

> <U+W>
-27.356

> <U>
24.589

> <W>
-51.945

> <W(PB)>
-54.480

> <W(SA)>
2.535

> <Valence>
3.670

> <Coulomb>
19.723

> <VdW>
1.196

> <VdW6>
-8.561

> <VdW12>
9.756

> <Bond>
0.223

> <Angle>
1.119

> <Pdih>
2.329

> <Idih>
0.000

> <Tether>
0.000

$$$$
VeraChem MOL file


 29 28  0  0  0  0  0  0  0  0999 V2000     
   20.4862   18.8981   19.3012 C   0  0  0  0  0  0  0  0  0  0  0  0
   20.3549   18.5912   18.2555 H   0  0  0  0  0  0  0  0  0  0  0  0
   21.2781   19.6576   19.3314 H   0  0  0  0  0  0  0  0  0  0  0  0
   20.8298   18.0199   19.8618 H   0  0  0  0  0  0  0  0  0  0  0  0
   19.1617   19.4534   19.8720 C   0  0  0  0  0  0  0  0  0  0  0  0
   18.3947   18.6664   19.8590 H   0  0  0  0  0  0  0  0  0  0  0  0
   18.7965   20.2496   19.2083 H   0  0  0  0  0  0  0  0  0  0  0  0
   19.3005   20.0253   21.3035 C   0  0  0  0  0  0  0  0  0  0  0  0
   20.0539   20.8251   21.3075 H   0  0  0  0  0  0  0  0  0  0  0  0
   18.3483   20.4960   21.5845 H   0  0  0  0  0  0  0  0  0  0  0  0
   19.6677   18.9570   22.3612 C   0  0  0  0  0  0  0  0  0  0  0  0
   20.6511   18.5266   22.1311 H   0  0  0  0  0  0  0  0  0  0  0  0
   18.9407   18.1342   22.3190 H   0  0  0  0  0  0  0  0  0  0  0  0
   19.6948   19.5490   23.7885 C   0  0  0  0  0  0  0  0  0  0  0  0
   20.4222   20.3718   23.8294 H   0  0  0  0  0  0  0  0  0  0  0  0
   18.7113   19.9799   24.0182 H   0  0  0  0  0  0  0  0  0  0  0  0
   20.0645   18.4805   24.8459 C   0  0  0  0  0  0  0  0  0  0  0  0
   21.0242   18.0242   24.5688 H   0  0  0  0  0  0  0  0  0  0  0  0
   19.3192   17.6741   24.8354 H   0  0  0  0  0  0  0  0  0  0  0  0
   20.1828   19.0601   26.2721 C   0  0  2  0  0  0  0  0  0  0  0  0
   20.9120   19.8758   26.2515 H   0  0  0  0  0  0  0  0  0  0  0  0
   20.6894   17.9842   27.2458 C   0  0  0  0  0  0  0  0  0  0  0  0
   19.9898   17.1410   27.3048 H   0  0  0  0  0  0  0  0  0  0  0  0
   21.6649   17.5971   26.9260 H   0  0  0  0  0  0  0  0  0  0  0  0
   20.8106   18.3991   28.2541 H   0  0  0  0  0  0  0  0  0  0  0  0
   18.8885   19.6483   26.7637 N   0  3  0  0  0  0  0  0  0  0  0  0
   18.9905   20.0452   27.7022 H   0  0  0  0  0  0  0  0  0  0  0  0
   18.1504   18.9407   26.8084 H   0  0  0  0  0  0  0  0  0  0  0  0
   18.5610   20.3977   26.1481 H   0  0  0  0  0  0  0  0  0  0  0  0
  1  2  1  0  0  0  0
  1  3  1  0  0  0  0
  1  4  1  0  0  0  0
  1  5  1  0  0  0  0
  5  6  1  0  0  0  0
  5  7  1  0  0  0  0
  5  8  1  0  0  0  0
  8  9  1  0  0  0  0
  8 10  1  0  0  0  0
  8 11  1  0  0  0  0
 11 12  1  0  0  0  0
 11 13  1  0  0  0  0
 11 14  1  0  0  0  0
 14 15  1  0  0  0  0
 14 16  1  0  0  0  0
 14 17  1  0  0  0  0
 17 18  1  0  0  0  0
 17 19  1  0  0  0  0
 17 20  1  0  0  0  0
 20 21  1  0  0  0  0
 20 22  1  0  0  0  0
 22 23  1  0  0  0  0
 22 24  1  0  0  0  0
 22 25  1  0  0  0  0
 20 26  1  0  0  0  0
 26 27  1  0  0  0  0
 26 28  1  0  0  0  0
 26 29  1  0  0  0  0
M  END
> <VM2 Rank>
5

> <Conf_Id>
1039

> <Probability>
3.90

> <Sum Probability>
29.02

> <Delta G>
0.600

> <G>
34.302

> <E>
-3.193

> <-TS>
37.495

> <U+W>
-27.338

> <U>
24.574

> <W>
-51.911

> <W(PB)>
-54.448

> <W(SA)>
2.537

> <Valence>
3.669

> <Coulomb>
19.705

> <VdW>
1.200

> <VdW6>
-8.560

> <VdW12>
9.760

> <Bond>
0.223

> <Angle>
1.118

> <Pdih>
2.328

> <Idih>
0.000

> <Tether>
0.000

$$$$
VeraChem MOL file


 29 28  0  0  0  0  0  0  0  0999 V2000     
   20.6746   18.9864   19.1354 C   0  0  0  0  0  0  0  0  0  0  0  0
   21.3268   19.8694   19.1534 H   0  0  0  0  0  0  0  0  0  0  0  0
   21.2744   18.1124   19.4209 H   0  0  0  0  0  0  0  0  0  0  0  0
   20.3351   18.8392   18.1019 H   0  0  0  0  0  0  0  0  0  0  0  0
   19.4706   19.1669   20.0840 C   0  0  0  0  0  0  0  0  0  0  0  0
   18.8201   18.2834   20.0198 H   0  0  0  0  0  0  0  0  0  0  0  0
   18.8716   20.0266   19.7525 H   0  0  0  0  0  0  0  0  0  0  0  0
   19.9212   19.3771   21.5465 C   0  0  0  0  0  0  0  0  0  0  0  0
   20.5261   18.5167   21.8604 H   0  0  0  0  0  0  0  0  0  0  0  0
   20.5688   20.2627   21.6058 H   0  0  0  0  0  0  0  0  0  0  0  0
   18.7140   19.5534   22.4990 C   0  0  0  0  0  0  0  0  0  0  0  0
   18.0959   18.6450   22.4867 H   0  0  0  0  0  0  0  0  0  0  0  0
   18.0770   20.3644   22.1198 H   0  0  0  0  0  0  0  0  0  0  0  0
   19.1150   19.8887   23.9568 C   0  0  0  0  0  0  0  0  0  0  0  0
   19.7307   20.7988   23.9682 H   0  0  0  0  0  0  0  0  0  0  0  0
   18.1994   20.1279   24.5133 H   0  0  0  0  0  0  0  0  0  0  0  0
   19.8699   18.7382   24.6715 C   0  0  0  0  0  0  0  0  0  0  0  0
   20.7968   18.5193   24.1273 H   0  0  0  0  0  0  0  0  0  0  0  0
   19.2644   17.8225   24.6436 H   0  0  0  0  0  0  0  0  0  0  0  0
   20.2342   19.0748   26.1339 C   0  0  2  0  0  0  0  0  0  0  0  0
   20.8048   20.0086   26.1391 H   0  0  0  0  0  0  0  0  0  0  0  0
   21.1156   17.9674   26.7333 C   0  0  0  0  0  0  0  0  0  0  0  0
   20.5874   17.0058   26.7514 H   0  0  0  0  0  0  0  0  0  0  0  0
   22.0352   17.8412   26.1484 H   0  0  0  0  0  0  0  0  0  0  0  0
   21.4071   18.2167   27.7611 H   0  0  0  0  0  0  0  0  0  0  0  0
   19.0209   19.3032   26.9936 N   0  3  0  0  0  0  0  0  0  0  0  0
   19.2828   19.5420   27.9543 H   0  0  0  0  0  0  0  0  0  0  0  0
   18.4308   18.4679   27.0352 H   0  0  0  0  0  0  0  0  0  0  0  0
   18.4462   20.0697   26.6336 H   0  0  0  0  0  0  0  0  0  0  0  0
  1  2  1  0  0  0  0
  1  3  1  0  0  0  0
  1  4  1  0  0  0  0
  1  5  1  0  0  0  0
  5  6  1  0  0  0  0
  5  7  1  0  0  0  0
  5  8  1  0  0  0  0
  8  9  1  0  0  0  0
  8 10  1  0  0  0  0
  8 11  1  0  0  0  0
 11 12  1  0  0  0  0
 11 13  1  0  0  0  0
 11 14  1  0  0  0  0
 14 15  1  0  0  0  0
 14 16  1  0  0  0  0
 14 17  1  0  0  0  0
 17 18  1  0  0  0  0
 17 19  1  0  0  0  0
 17 20  1  0  0  0  0
 20 21  1  0  0  0  0
 20 22  1  0  0  0  0
 22 23  1  0  0  0  0
 22 24  1  0  0  0  0
 22 25  1  0  0  0  0
 20 26  1  0  0  0  0
 26 27  1  0  0  0  0
 26 28  1  0  0  0  0
 26 29  1  0  0  0  0
M  END
> <VM2 Rank>
6

> <Conf_Id>
1238

> <Probability>
3.58

> <Sum Probability>
32.60

> <Delta G>
0.651

> <G>
34.353

> <E>
-3.103

> <-TS>
37.455

> <U+W>
-27.247

> <U>
24.710

> <W>
-51.958

> <W(PB)>
-54.513

> <W(SA)>
2.555

> <Valence>
3.735

> <Coulomb>
19.760

> <VdW>
1.216

> <VdW6>
-8.624

> <VdW12>
9.840

> <Bond>
0.236

> <Angle>
1.168

> <Pdih>
2.330

> <Idih>
0.000

> <Tether>
0.000

$$$$
VeraChem MOL file


 29 28  0  0  0  0  0  0  0  0999 V2000     
   19.7045   20.0256   19.0213 C   0  0  0  0  0  0  0  0  0  0  0  0
   20.4610   20.3918   18.3153 H   0  0  0  0  0  0  0  0  0  0  0  0
   19.2424   19.1300   18.5858 H   0  0  0  0  0  0  0  0  0  0  0  0
   18.9301   20.7980   19.1165 H   0  0  0  0  0  0  0  0  0  0  0  0
   20.3439   19.7099   20.3900 C   0  0  0  0  0  0  0  0  0  0  0  0
   20.8266   20.6151   20.7843 H   0  0  0  0  0  0  0  0  0  0  0  0
   21.1364   18.9599   20.2579 H   0  0  0  0  0  0  0  0  0  0  0  0
   19.2995   19.1920   21.4033 C   0  0  0  0  0  0  0  0  0  0  0  0
   18.5085   19.9440   21.5305 H   0  0  0  0  0  0  0  0  0  0  0  0
   18.8181   18.2889   21.0032 H   0  0  0  0  0  0  0  0  0  0  0  0
   19.9363   18.8742   22.7749 C   0  0  0  0  0  0  0  0  0  0  0  0
   20.4223   19.7790   23.1636 H   0  0  0  0  0  0  0  0  0  0  0  0
   20.7243   18.1193   22.6463 H   0  0  0  0  0  0  0  0  0  0  0  0
   18.8872   18.3576   23.7884 C   0  0  0  0  0  0  0  0  0  0  0  0
   18.1090   19.1178   23.9388 H   0  0  0  0  0  0  0  0  0  0  0  0
   18.3774   17.4824   23.3625 H   0  0  0  0  0  0  0  0  0  0  0  0
   19.5033   17.9514   25.1516 C   0  0  0  0  0  0  0  0  0  0  0  0
   20.2037   17.1214   24.9891 H   0  0  0  0  0  0  0  0  0  0  0  0
   18.7090   17.5593   25.8006 H   0  0  0  0  0  0  0  0  0  0  0  0
   20.2407   19.0965   25.8814 C   0  0  2  0  0  0  0  0  0  0  0  0
   21.0408   19.4615   25.2307 H   0  0  0  0  0  0  0  0  0  0  0  0
   20.8786   18.5796   27.1805 C   0  0  0  0  0  0  0  0  0  0  0  0
   20.1166   18.2049   27.8755 H   0  0  0  0  0  0  0  0  0  0  0  0
   21.5813   17.7633   26.9714 H   0  0  0  0  0  0  0  0  0  0  0  0
   21.4368   19.3787   27.6836 H   0  0  0  0  0  0  0  0  0  0  0  0
   19.3421   20.2693   26.1626 N   0  3  0  0  0  0  0  0  0  0  0  0
   18.9409   20.6447   25.2989 H   0  0  0  0  0  0  0  0  0  0  0  0
   19.8510   21.0297   26.6223 H   0  0  0  0  0  0  0  0  0  0  0  0
   18.5656   20.0052   26.7748 H   0  0  0  0  0  0  0  0  0  0  0  0
  1  2  1  0  0  0  0
  1  3  1  0  0  0  0
  1  4  1  0  0  0  0
  1  5  1  0  0  0  0
  5  6  1  0  0  0  0
  5  7  1  0  0  0  0
  5  8  1  0  0  0  0
  8  9  1  0  0  0  0
  8 10  1  0  0  0  0
  8 11  1  0  0  0  0
 11 12  1  0  0  0  0
 11 13  1  0  0  0  0
 11 14  1  0  0  0  0
 14 15  1  0  0  0  0
 14 16  1  0  0  0  0
 14 17  1  0  0  0  0
 17 18  1  0  0  0  0
 17 19  1  0  0  0  0
 17 20  1  0  0  0  0
 20 21  1  0  0  0  0
 20 22  1  0  0  0  0
 22 23  1  0  0  0  0
 22 24  1  0  0  0  0
 22 25  1  0  0  0  0
 20 26  1  0  0  0  0
 26 27  1  0  0  0  0
 26 28  1  0  0  0  0
 26 29  1  0  0  0  0
M  END
> <VM2 Rank>
7

> <Conf_Id>
933

> <Probability>
3.51

> <Sum Probability>
36.11

> <Delta G>
0.662

> <G>
34.364

> <E>
-3.215

> <-TS>
37.579

> <U+W>
-27.360

> <U>
24.672

> <W>
-52.032

> <W(PB)>
-54.582

> <W(SA)>
2.550

> <Valence>
3.465

> <Coulomb>
20.280

> <VdW>
0.927

> <VdW6>
-8.843

> <VdW12>
9.770

> <Bond>
0.217

> <Angle>
1.094

> <Pdih>
2.153

> <Idih>
0.000

> <Tether>
0.000

$$$$
VeraChem MOL file


 29 28  0  0  0  0  0  0  0  0999 V2000     
   18.6214   18.9170   19.2920 C   0  0  0  0  0  0  0  0  0  0  0  0
   18.1665   17.9711   19.6136 H   0  0  0  0  0  0  0  0  0  0  0  0
   17.8748   19.7131   19.4099 H   0  0  0  0  0  0  0  0  0  0  0  0
   18.8571   18.8316   18.2233 H   0  0  0  0  0  0  0  0  0  0  0  0
   19.8947   19.2258   20.1077 C   0  0  0  0  0  0  0  0  0  0  0  0
   20.3454   20.1584   19.7402 H   0  0  0  0  0  0  0  0  0  0  0  0
   20.6347   18.4299   19.9440 H   0  0  0  0  0  0  0  0  0  0  0  0
   19.5905   19.3521   21.6168 C   0  0  0  0  0  0  0  0  0  0  0  0
   18.8521   20.1501   21.7755 H   0  0  0  0  0  0  0  0  0  0  0  0
   19.1329   18.4184   21.9688 H   0  0  0  0  0  0  0  0  0  0  0  0
   20.8674   19.6576   22.4361 C   0  0  0  0  0  0  0  0  0  0  0  0
   21.3527   20.5523   22.0221 H   0  0  0  0  0  0  0  0  0  0  0  0
   21.5872   18.8355   22.3210 H   0  0  0  0  0  0  0  0  0  0  0  0
   20.5929   19.9006   23.9405 C   0  0  0  0  0  0  0  0  0  0  0  0
   21.5314   20.2132   24.4191 H   0  0  0  0  0  0  0  0  0  0  0  0
   19.8943   20.7410   24.0481 H   0  0  0  0  0  0  0  0  0  0  0  0
   20.0438   18.6516   24.6762 C   0  0  0  0  0  0  0  0  0  0  0  0
   20.7004   17.7972   24.4648 H   0  0  0  0  0  0  0  0  0  0  0  0
   19.0508   18.3900   24.2893 H   0  0  0  0  0  0  0  0  0  0  0  0
   19.9584   18.8475   26.2052 C   0  0  2  0  0  0  0  0  0  0  0  0
   20.9520   19.1232   26.5717 H   0  0  0  0  0  0  0  0  0  0  0  0
   19.5376   17.5373   26.8897 C   0  0  0  0  0  0  0  0  0  0  0  0
   18.5421   17.2174   26.5571 H   0  0  0  0  0  0  0  0  0  0  0  0
   20.2485   16.7331   26.6626 H   0  0  0  0  0  0  0  0  0  0  0  0
   19.5109   17.6598   27.9795 H   0  0  0  0  0  0  0  0  0  0  0  0
   19.0293   19.9662   26.5898 N   0  3  0  0  0  0  0  0  0  0  0  0
   18.0724   19.7803   26.2779 H   0  0  0  0  0  0  0  0  0  0  0  0
   19.3225   20.8545   26.1743 H   0  0  0  0  0  0  0  0  0  0  0  0
   19.0013   20.0970   27.6051 H   0  0  0  0  0  0  0  0  0  0  0  0
  1  2  1  0  0  0  0
  1  3  1  0  0  0  0
  1  4  1  0  0  0  0
  1  5  1  0  0  0  0
  5  6  1  0  0  0  0
  5  7  1  0  0  0  0
  5  8  1  0  0  0  0
  8  9  1  0  0  0  0
  8 10  1  0  0  0  0
  8 11  1  0  0  0  0
 11 12  1  0  0  0  0
 11 13  1  0  0  0  0
 11 14  1  0  0  0  0
 14 15  1  0  0  0  0
 14 16  1  0  0  0  0
 14 17  1  0  0  0  0
 17 18  1  0  0  0  0
 17 19  1  0  0  0  0
 17 20  1  0  0  0  0
 20 21  1  0  0  0  0
 20 22  1  0  0  0  0
 22 23  1  0  0  0  0
 22 24  1  0  0  0  0
 22 25  1  0  0  0  0
 20 26  1  0  0  0  0
 26 27  1  0  0  0  0
 26 28  1  0  0  0  0
 26 29  1  0  0  0  0
M  END
> <VM2 Rank>
8

> <Conf_Id>
1224

> <Probability>
3.51

> <Sum Probability>
39.62

> <Delta G>
0.663

> <G>
34.365

> <E>
-3.138

> <-TS>
37.502

> <U+W>
-27.282

> <U>
24.741

> <W>
-52.023

> <W(PB)>
-54.548

> <W(SA)>
2.525

> <Valence>
3.693

> <Coulomb>
19.919

> <VdW>
1.129

> <VdW6>
-8.666

> <VdW12>
9.795

> <Bond>
0.229

> <Angle>
1.104

> <Pdih>
2.360

> <Idih>
0.000

> <Tether>
0.000

$$$$
VeraChem MOL file


 29 28  0  0  0  0  0  0  0  0999 V2000     
   19.1696   20.2660   19.2417 C   0  0  0  0  0  0  0  0  0  0  0  0
   18.2209   20.7491   18.9741 H   0  0  0  0  0  0  0  0  0  0  0  0
   19.9582   21.0290   19.2066 H   0  0  0  0  0  0  0  0  0  0  0  0
   19.3904   19.5105   18.4764 H   0  0  0  0  0  0  0  0  0  0  0  0
   19.0792   19.6266   20.6435 C   0  0  0  0  0  0  0  0  0  0  0  0
   18.2640   18.8897   20.6557 H   0  0  0  0  0  0  0  0  0  0  0  0
   18.8172   20.4044   21.3728 H   0  0  0  0  0  0  0  0  0  0  0  0
   20.4076   18.9428   21.0444 C   0  0  0  0  0  0  0  0  0  0  0  0
   20.6915   18.2281   20.2597 H   0  0  0  0  0  0  0  0  0  0  0  0
   21.2116   19.6906   21.0854 H   0  0  0  0  0  0  0  0  0  0  0  0
   20.3337   18.1855   22.3930 C   0  0  0  0  0  0  0  0  0  0  0  0
   21.2746   17.6357   22.5336 H   0  0  0  0  0  0  0  0  0  0  0  0
   19.5385   17.4287   22.3464 H   0  0  0  0  0  0  0  0  0  0  0  0
   20.1033   19.1115   23.6115 C   0  0  0  0  0  0  0  0  0  0  0  0
   20.8711   19.8975   23.6244 H   0  0  0  0  0  0  0  0  0  0  0  0
   19.1322   19.6123   23.5139 H   0  0  0  0  0  0  0  0  0  0  0  0
   20.1490   18.3245   24.9439 C   0  0  0  0  0  0  0  0  0  0  0  0
   21.1055   17.7887   25.0074 H   0  0  0  0  0  0  0  0  0  0  0  0
   19.3605   17.5601   24.9508 H   0  0  0  0  0  0  0  0  0  0  0  0
   20.0045   19.2314   26.1852 C   0  0  2  0  0  0  0  0  0  0  0  0
   20.7839   19.9984   26.1422 H   0  0  0  0  0  0  0  0  0  0  0  0
   20.2032   18.4129   27.4708 C   0  0  0  0  0  0  0  0  0  0  0  0
   19.4424   17.6276   27.5631 H   0  0  0  0  0  0  0  0  0  0  0  0
   21.1906   17.9346   27.4798 H   0  0  0  0  0  0  0  0  0  0  0  0
   20.1381   19.0578   28.3558 H   0  0  0  0  0  0  0  0  0  0  0  0
   18.6860   19.9549   26.2201 N   0  3  0  0  0  0  0  0  0  0  0  0
   17.9015   19.2986   26.2580 H   0  0  0  0  0  0  0  0  0  0  0  0
   18.5591   20.5408   25.3906 H   0  0  0  0  0  0  0  0  0  0  0  0
   18.6158   20.5647   27.0398 H   0  0  0  0  0  0  0  0  0  0  0  0
  1  2  1  0  0  0  0
  1  3  1  0  0  0  0
  1  4  1  0  0  0  0
  1  5  1  0  0  0  0
  5  6  1  0  0  0  0
  5  7  1  0  0  0  0
  5  8  1  0  0  0  0
  8  9  1  0  0  0  0
  8 10  1  0  0  0  0
  8 11  1  0  0  0  0
 11 12  1  0  0  0  0
 11 13  1  0  0  0  0
 11 14  1  0  0  0  0
 14 15  1  0  0  0  0
 14 16  1  0  0  0  0
 14 17  1  0  0  0  0
 17 18  1  0  0  0  0
 17 19  1  0  0  0  0
 17 20  1  0  0  0  0
 20 21  1  0  0  0  0
 20 22  1  0  0  0  0
 22 23  1  0  0  0  0
 22 24  1  0  0  0  0
 22 25  1  0  0  0  0
 20 26  1  0  0  0  0
 26 27  1  0  0  0  0
 26 28  1  0  0  0  0
 26 29  1  0  0  0  0
M  END
> <VM2 Rank>
9

> <Conf_Id>
887

> <Probability>
3.35

> <Sum Probability>
42.97

> <Delta G>
0.691

> <G>
34.392

> <E>
-3.085

> <-TS>
37.478

> <U+W>
-27.230

> <U>
25.011

> <W>
-52.241

> <W(PB)>
-54.752

> <W(SA)>
2.511

> <Valence>
3.709

> <Coulomb>
20.125

> <VdW>
1.178

> <VdW6>
-8.624

> <VdW12>
9.801

> <Bond>
0.228

> <Angle>
1.140

> <Pdih>
2.340

> <Idih>
0.000

> <Tether>
0.000

$$$$
VeraChem MOL file


 29 28  0  0  0  0  0  0  0  0999 V2000     
   19.8085   20.3259   19.1846 C   0  0  0  0  0  0  0  0  0  0  0  0
   19.6638   19.5321   18.4402 H   0  0  0  0  0  0  0  0  0  0  0  0
   18.8771   20.9028   19.2550 H   0  0  0  0  0  0  0  0  0  0  0  0
   20.5936   20.9971   18.8130 H   0  0  0  0  0  0  0  0  0  0  0  0
   20.2000   19.7363   20.5561 C   0  0  0  0  0  0  0  0  0  0  0  0
   20.3755   20.5600   21.2606 H   0  0  0  0  0  0  0  0  0  0  0  0
   21.1490   19.1905   20.4604 H   0  0  0  0  0  0  0  0  0  0  0  0
   19.1056   18.7894   21.1026 C   0  0  0  0  0  0  0  0  0  0  0  0
   18.1710   19.3485   21.2483 H   0  0  0  0  0  0  0  0  0  0  0  0
   18.8900   18.0205   20.3479 H   0  0  0  0  0  0  0  0  0  0  0  0
   19.4995   18.0831   22.4230 C   0  0  0  0  0  0  0  0  0  0  0  0
   20.4248   17.5102   22.2711 H   0  0  0  0  0  0  0  0  0  0  0  0
   18.7197   17.3495   22.6705 H   0  0  0  0  0  0  0  0  0  0  0  0
   19.6745   19.0536   23.6157 C   0  0  0  0  0  0  0  0  0  0  0  0
   20.5056   19.7433   23.4180 H   0  0  0  0  0  0  0  0  0  0  0  0
   18.7675   19.6638   23.7189 H   0  0  0  0  0  0  0  0  0  0  0  0
   19.9535   18.2927   24.9347 C   0  0  0  0  0  0  0  0  0  0  0  0
   20.8288   17.6449   24.7918 H   0  0  0  0  0  0  0  0  0  0  0  0
   19.1086   17.6313   25.1685 H   0  0  0  0  0  0  0  0  0  0  0  0
   20.2210   19.2347   26.1284 C   0  0  2  0  0  0  0  0  0  0  0  0
   21.0499   19.8982   25.8628 H   0  0  0  0  0  0  0  0  0  0  0  0
   20.6302   18.4236   27.3681 C   0  0  0  0  0  0  0  0  0  0  0  0
   20.8572   19.0891   28.2101 H   0  0  0  0  0  0  0  0  0  0  0  0
   19.8290   17.7410   27.6781 H   0  0  0  0  0  0  0  0  0  0  0  0
   21.5279   17.8266   27.1646 H   0  0  0  0  0  0  0  0  0  0  0  0
   19.0432   20.1167   26.4408 N   0  3  0  0  0  0  0  0  0  0  0  0
   19.2451   20.7480   27.2214 H   0  0  0  0  0  0  0  0  0  0  0  0
   18.2213   19.5637   26.6982 H   0  0  0  0  0  0  0  0  0  0  0  0
   18.7864   20.6958   25.6368 H   0  0  0  0  0  0  0  0  0  0  0  0
  1  2  1  0  0  0  0
  1  3  1  0  0  0  0
  1  4  1  0  0  0  0
  1  5  1  0  0  0  0
  5  6  1  0  0  0  0
  5  7  1  0  0  0  0
  5  8  1  0  0  0  0
  8  9  1  0  0  0  0
  8 10  1  0  0  0  0
  8 11  1  0  0  0  0
 11 12  1  0  0  0  0
 11 13  1  0  0  0  0
 11 14  1  0  0  0  0
 14 15  1  0  0  0  0
 14 16  1  0  0  0  0
 14 17  1  0  0  0  0
 17 18  1  0  0  0  0
 17 19  1  0  0  0  0
 17 20  1  0  0  0  0
 20 21  1  0  0  0  0
 20 22  1  0  0  0  0
 22 23  1  0  0  0  0
 22 24  1  0  0  0  0
 22 25  1  0  0  0  0
 20 26  1  0  0  0  0
 26 27  1  0  0  0  0
 26 28  1  0  0  0  0
 26 29  1  0  0  0  0
M  END
> <VM2 Rank>
10

> <Conf_Id>
1225

> <Probability>
3.30

> <Sum Probability>
46.27

> <Delta G>
0.699

> <G>
34.401

> <E>
-3.085

> <-TS>
37.486

> <U+W>
-27.230

> <U>
24.821

> <W>
-52.050

> <W(PB)>
-54.565

> <W(SA)>
2.514

> <Valence>
3.711

> <Coulomb>
19.938

> <VdW>
1.172

> <VdW6>
-8.614

> <VdW12>
9.786

> <Bond>
0.226

> <Angle>
1.142

> <Pdih>
2.342

> <Idih>
0.000

> <Tether>
0.000

$$$$
VeraChem MOL file


 29 28  0  0  0  0  0  0  0  0999 V2000     
   20.2023   19.6775   18.9796 C   0  0  0  0  0  0  0  0  0  0  0  0
   19.4974   18.9456   18.5640 H   0  0  0  0  0  0  0  0  0  0  0  0
   20.1885   20.5640   18.3322 H   0  0  0  0  0  0  0  0  0  0  0  0
   21.2101   19.2444   18.9366 H   0  0  0  0  0  0  0  0  0  0  0  0
   19.8217   20.0539   20.4271 C   0  0  0  0  0  0  0  0  0  0  0  0
   18.8240   20.5149   20.4336 H   0  0  0  0  0  0  0  0  0  0  0  0
   20.5235   20.8114   20.8032 H   0  0  0  0  0  0  0  0  0  0  0  0
   19.8335   18.8229   21.3599 C   0  0  0  0  0  0  0  0  0  0  0  0
   19.1326   18.0677   20.9782 H   0  0  0  0  0  0  0  0  0  0  0  0
   20.8321   18.3644   21.3486 H   0  0  0  0  0  0  0  0  0  0  0  0
   19.4529   19.1959   22.8103 C   0  0  0  0  0  0  0  0  0  0  0  0
   18.4527   19.6508   22.8211 H   0  0  0  0  0  0  0  0  0  0  0  0
   20.1535   19.9557   23.1814 H   0  0  0  0  0  0  0  0  0  0  0  0
   19.4693   17.9613   23.7431 C   0  0  0  0  0  0  0  0  0  0  0  0
   18.8053   17.1897   23.3295 H   0  0  0  0  0  0  0  0  0  0  0  0
   20.4738   17.5181   23.7571 H   0  0  0  0  0  0  0  0  0  0  0  0
   19.0080   18.2812   25.1884 C   0  0  0  0  0  0  0  0  0  0  0  0
   19.0308   17.3584   25.7830 H   0  0  0  0  0  0  0  0  0  0  0  0
   17.9565   18.5955   25.1547 H   0  0  0  0  0  0  0  0  0  0  0  0
   19.8287   19.3748   25.9122 C   0  0  2  0  0  0  0  0  0  0  0  0
   19.7918   20.2886   25.3119 H   0  0  0  0  0  0  0  0  0  0  0  0
   21.3022   18.9688   26.0916 C   0  0  0  0  0  0  0  0  0  0  0  0
   21.8026   18.8499   25.1235 H   0  0  0  0  0  0  0  0  0  0  0  0
   21.8504   19.7389   26.6481 H   0  0  0  0  0  0  0  0  0  0  0  0
   21.3891   18.0239   26.6423 H   0  0  0  0  0  0  0  0  0  0  0  0
   19.2174   19.7196   27.2417 N   0  3  0  0  0  0  0  0  0  0  0  0
   19.7343   20.4710   27.7075 H   0  0  0  0  0  0  0  0  0  0  0  0
   19.2156   18.9137   27.8727 H   0  0  0  0  0  0  0  0  0  0  0  0
   18.2478   20.0338   27.1410 H   0  0  0  0  0  0  0  0  0  0  0  0
  1  2  1  0  0  0  0
  1  3  1  0  0  0  0
  1  4  1  0  0  0  0
  1  5  1  0  0  0  0
  5  6  1  0  0  0  0
  5  7  1  0  0  0  0
  5  8  1  0  0  0  0
  8  9  1  0  0  0  0
  8 10  1  0  0  0  0
  8 11  1  0  0  0  0
 11 12  1  0  0  0  0
 11 13  1  0  0  0  0
 11 14  1  0  0  0  0
 14 15  1  0  0  0  0
 14 16  1  0  0  0  0
 14 17  1  0  0  0  0
 17 18  1  0  0  0  0
 17 19  1  0  0  0  0
 17 20  1  0  0  0  0
 20 21  1  0  0  0  0
 20 22  1  0  0  0  0
 22 23  1  0  0  0  0
 22 24  1  0  0  0  0
 22 25  1  0  0  0  0
 20 26  1  0  0  0  0
 26 27  1  0  0  0  0
 26 28  1  0  0  0  0
 26 29  1  0  0  0  0
M  END
> <VM2 Rank>
11

> <Conf_Id>
264

> <Probability>
2.31

> <Sum Probability>
48.57

> <Delta G>
0.913

> <G>
34.615

> <E>
-3.059

> <-TS>
37.674

> <U+W>
-27.204

> <U>
24.848

> <W>
-52.052

> <W(PB)>
-54.585

> <W(SA)>
2.533

> <Valence>
3.959

> <Coulomb>
19.891

> <VdW>
0.998

> <VdW6>
-9.069

> <VdW12>
10.067

> <Bond>
0.229

> <Angle>
1.422

> <Pdih>
2.308

> <Idih>
0.000

> <Tether>
0.000

$$$$
VeraChem MOL file


 29 28  0  0  0  0  0  0  0  0999 V2000     
   19.0992   20.0451   19.3978 C   0  0  0  0  0  0  0  0  0  0  0  0
   18.2240   20.1753   20.0463 H   0  0  0  0  0  0  0  0  0  0  0  0
   19.7016   20.9616   19.4439 H   0  0  0  0  0  0  0  0  0  0  0  0
   18.7336   19.9350   18.3686 H   0  0  0  0  0  0  0  0  0  0  0  0
   19.9329   18.8108   19.8102 C   0  0  0  0  0  0  0  0  0  0  0  0
   20.7230   18.6516   19.0631 H   0  0  0  0  0  0  0  0  0  0  0  0
   19.3005   17.9124   19.7852 H   0  0  0  0  0  0  0  0  0  0  0  0
   20.5894   18.9500   21.2049 C   0  0  0  0  0  0  0  0  0  0  0  0
   21.2476   18.0855   21.3679 H   0  0  0  0  0  0  0  0  0  0  0  0
   21.2363   19.8380   21.2188 H   0  0  0  0  0  0  0  0  0  0  0  0
   19.5659   19.0316   22.3627 C   0  0  0  0  0  0  0  0  0  0  0  0
   18.8882   18.1682   22.3146 H   0  0  0  0  0  0  0  0  0  0  0  0
   18.9463   19.9309   22.2501 H   0  0  0  0  0  0  0  0  0  0  0  0
   20.2622   19.0647   23.7422 C   0  0  0  0  0  0  0  0  0  0  0  0
   20.8827   18.1656   23.8509 H   0  0  0  0  0  0  0  0  0  0  0  0
   20.9390   19.9291   23.7901 H   0  0  0  0  0  0  0  0  0  0  0  0
   19.2376   19.1457   24.9004 C   0  0  0  0  0  0  0  0  0  0  0  0
   18.6006   18.2512   24.8947 H   0  0  0  0  0  0  0  0  0  0  0  0
   18.5736   20.0016   24.7203 H   0  0  0  0  0  0  0  0  0  0  0  0
   19.8847   19.3145   26.2940 C   0  0  2  0  0  0  0  0  0  0  0  0
   20.5460   20.1859   26.2622 H   0  0  0  0  0  0  0  0  0  0  0  0
   20.7173   18.0853   26.7005 C   0  0  0  0  0  0  0  0  0  0  0  0
   20.1098   17.1719   26.6850 H   0  0  0  0  0  0  0  0  0  0  0  0
   21.5714   17.9420   26.0287 H   0  0  0  0  0  0  0  0  0  0  0  0
   21.1195   18.2091   27.7135 H   0  0  0  0  0  0  0  0  0  0  0  0
   18.8468   19.6082   27.3413 N   0  3  0  0  0  0  0  0  0  0  0  0
   18.1832   18.8348   27.4375 H   0  0  0  0  0  0  0  0  0  0  0  0
   18.3085   20.4492   27.1134 H   0  0  0  0  0  0  0  0  0  0  0  0
   19.2743   19.7600   28.2594 H   0  0  0  0  0  0  0  0  0  0  0  0
  1  2  1  0  0  0  0
  1  3  1  0  0  0  0
  1  4  1  0  0  0  0
  1  5  1  0  0  0  0
  5  6  1  0  0  0  0
  5  7  1  0  0  0  0
  5  8  1  0  0  0  0
  8  9  1  0  0  0  0
  8 10  1  0  0  0  0
  8 11  1  0  0  0  0
 11 12  1  0  0  0  0
 11 13  1  0  0  0  0
 11 14  1  0  0  0  0
 14 15  1  0  0  0  0
 14 16  1  0  0  0  0
 14 17  1  0  0  0  0
 17 18  1  0  0  0  0
 17 19  1  0  0  0  0
 17 20  1  0  0  0  0
 20 21  1  0  0  0  0
 20 22  1  0  0  0  0
 22 23  1  0  0  0  0
 22 24  1  0  0  0  0
 22 25  1  0  0  0  0
 20 26  1  0  0  0  0
 26 27  1  0  0  0  0
 26 28  1  0  0  0  0
 26 29  1  0  0  0  0
M  END
> <VM2 Rank>
12

> <Conf_Id>
1028

> <Probability>
1.91

> <Sum Probability>
50.48

> <Delta G>
1.026

> <G>
34.728

> <E>
-2.781

> <-TS>
37.509

> <U+W>
-26.925

> <U>
24.926

> <W>
-51.852

> <W(PB)>
-54.366

> <W(SA)>
2.514

> <Valence>
4.212

> <Coulomb>
19.386

> <VdW>
1.329

> <VdW6>
-8.714

> <VdW12>
10.043

> <Bond>
0.235

> <Angle>
1.400

> <Pdih>
2.577

> <Idih>
0.000

> <Tether>
0.000

$$$$
VeraChem MOL file


 29 28  0  0  0  0  0  0  0  0999 V2000     
   18.9119   18.7268   19.3816 C   0  0  0  0  0  0  0  0  0  0  0  0
   19.2496   17.6823   19.3809 H   0  0  0  0  0  0  0  0  0  0  0  0
   18.0333   18.8041   20.0339 H   0  0  0  0  0  0  0  0  0  0  0  0
   18.5890   18.9759   18.3625 H   0  0  0  0  0  0  0  0  0  0  0  0
   20.0429   19.6761   19.8376 C   0  0  0  0  0  0  0  0  0  0  0  0
   19.6715   20.7102   19.8588 H   0  0  0  0  0  0  0  0  0  0  0  0
   20.8473   19.6535   19.0891 H   0  0  0  0  0  0  0  0  0  0  0  0
   20.6382   19.3054   21.2173 C   0  0  0  0  0  0  0  0  0  0  0  0
   21.0264   18.2780   21.1851 H   0  0  0  0  0  0  0  0  0  0  0  0
   21.5020   19.9564   21.4106 H   0  0  0  0  0  0  0  0  0  0  0  0
   19.6290   19.4461   22.3820 C   0  0  0  0  0  0  0  0  0  0  0  0
   18.7933   18.7486   22.2388 H   0  0  0  0  0  0  0  0  0  0  0  0
   19.2042   20.4594   22.3780 H   0  0  0  0  0  0  0  0  0  0  0  0
   20.2909   19.1679   23.7507 C   0  0  0  0  0  0  0  0  0  0  0  0
   20.7223   18.1584   23.7393 H   0  0  0  0  0  0  0  0  0  0  0  0
   21.1218   19.8699   23.9062 H   0  0  0  0  0  0  0  0  0  0  0  0
   19.2787   19.3003   24.9151 C   0  0  0  0  0  0  0  0  0  0  0  0
   18.4805   18.5551   24.7987 H   0  0  0  0  0  0  0  0  0  0  0  0
   18.7972   20.2849   24.8490 H   0  0  0  0  0  0  0  0  0  0  0  0
   19.9186   19.1624   26.3155 C   0  0  2  0  0  0  0  0  0  0  0  0
   20.7368   19.8851   26.3917 H   0  0  0  0  0  0  0  0  0  0  0  0
   20.4889   17.7532   26.5570 C   0  0  0  0  0  0  0  0  0  0  0  0
   20.8876   17.6673   27.5754 H   0  0  0  0  0  0  0  0  0  0  0  0
   19.7163   16.9850   26.4284 H   0  0  0  0  0  0  0  0  0  0  0  0
   21.3120   17.5323   25.8677 H   0  0  0  0  0  0  0  0  0  0  0  0
   18.9368   19.5179   27.3971 N   0  3  0  0  0  0  0  0  0  0  0  0
   18.5763   20.4695   27.2814 H   0  0  0  0  0  0  0  0  0  0  0  0
   19.3675   19.4663   28.3248 H   0  0  0  0  0  0  0  0  0  0  0  0
   18.1342   18.8826   27.3972 H   0  0  0  0  0  0  0  0  0  0  0  0
  1  2  1  0  0  0  0
  1  3  1  0  0  0  0
  1  4  1  0  0  0  0
  1  5  1  0  0  0  0
  5  6  1  0  0  0  0
  5  7  1  0  0  0  0
  5  8  1  0  0  0  0
  8  9  1  0  0  0  0
  8 10  1  0  0  0  0
  8 11  1  0  0  0  0
 11 12  1  0  0  0  0
 11 13  1  0  0  0  0
 11 14  1  0  0  0  0
 14 15  1  0  0  0  0
 14 16  1  0  0  0  0
 14 17  1  0  0  0  0
 17 18  1  0  0  0  0
 17 19  1  0  0  0  0
 17 20  1  0  0  0  0
 20 21  1  0  0  0  0
 20 22  1  0  0  0  0
 22 23  1  0  0  0  0
 22 24  1  0  0  0  0
 22 25  1  0  0  0  0
 20 26  1  0  0  0  0
 26 27  1  0  0  0  0
 26 28  1  0  0  0  0
 26 29  1  0  0  0  0
M  END
> <VM2 Rank>
13

> <Conf_Id>
672

> <Probability>
1.74

> <Sum Probability>
52.22

> <Delta G>
1.081

> <G>
34.783

> <E>
-2.727

> <-TS>
37.509

> <U+W>
-26.871

> <U>
24.913

> <W>
-51.782

> <W(PB)>
-54.309

> <W(SA)>
2.527

> <Valence>
4.213

> <Coulomb>
19.377

> <VdW>
1.323

> <VdW6>
-8.715

> <VdW12>
10.039

> <Bond>
0.234

> <Angle>
1.400

> <Pdih>
2.578

> <Idih>
0.000

> <Tether>
0.000

$$$$
VeraChem MOL file


 29 28  0  0  0  0  0  0  0  0999 V2000     
   20.4590   19.9132   19.1357 C   0  0  0  0  0  0  0  0  0  0  0  0
   21.3874   19.3299   19.0801 H   0  0  0  0  0  0  0  0  0  0  0  0
   19.7393   19.4787   18.4298 H   0  0  0  0  0  0  0  0  0  0  0  0
   20.6824   20.9351   18.8027 H   0  0  0  0  0  0  0  0  0  0  0  0
   19.8937   19.9195   20.5718 C   0  0  0  0  0  0  0  0  0  0  0  0
   18.9830   20.5339   20.6020 H   0  0  0  0  0  0  0  0  0  0  0  0
   20.6230   20.3973   21.2392 H   0  0  0  0  0  0  0  0  0  0  0  0
   19.5750   18.4884   21.0649 C   0  0  0  0  0  0  0  0  0  0  0  0
   18.9072   18.0019   20.3405 H   0  0  0  0  0  0  0  0  0  0  0  0
   20.4961   17.8898   21.0848 H   0  0  0  0  0  0  0  0  0  0  0  0
   18.8995   18.4485   22.4577 C   0  0  0  0  0  0  0  0  0  0  0  0
   18.6071   17.4113   22.6723 H   0  0  0  0  0  0  0  0  0  0  0  0
   17.9690   19.0322   22.4311 H   0  0  0  0  0  0  0  0  0  0  0  0
   19.8076   18.9623   23.6008 C   0  0  0  0  0  0  0  0  0  0  0  0
   20.7587   18.4147   23.5748 H   0  0  0  0  0  0  0  0  0  0  0  0
   20.0422   20.0234   23.4448 H   0  0  0  0  0  0  0  0  0  0  0  0
   19.1347   18.7920   24.9850 C   0  0  0  0  0  0  0  0  0  0  0  0
   18.9614   17.7262   25.1844 H   0  0  0  0  0  0  0  0  0  0  0  0
   18.1455   19.2676   24.9530 H   0  0  0  0  0  0  0  0  0  0  0  0
   19.9388   19.4145   26.1492 C   0  0  2  0  0  0  0  0  0  0  0  0
   20.1329   20.4645   25.9096 H   0  0  0  0  0  0  0  0  0  0  0  0
   21.2883   18.7067   26.3664 C   0  0  0  0  0  0  0  0  0  0  0  0
   21.8130   19.1324   27.2307 H   0  0  0  0  0  0  0  0  0  0  0  0
   21.1489   17.6337   26.5479 H   0  0  0  0  0  0  0  0  0  0  0  0
   21.9459   18.8262   25.4977 H   0  0  0  0  0  0  0  0  0  0  0  0
   19.1393   19.4110   27.4225 N   0  3  0  0  0  0  0  0  0  0  0  0
   19.6526   19.8581   28.1876 H   0  0  0  0  0  0  0  0  0  0  0  0
   18.9155   18.4577   27.7209 H   0  0  0  0  0  0  0  0  0  0  0  0
   18.2546   19.9153   27.3137 H   0  0  0  0  0  0  0  0  0  0  0  0
  1  2  1  0  0  0  0
  1  3  1  0  0  0  0
  1  4  1  0  0  0  0
  1  5  1  0  0  0  0
  5  6  1  0  0  0  0
  5  7  1  0  0  0  0
  5  8  1  0  0  0  0
  8  9  1  0  0  0  0
  8 10  1  0  0  0  0
  8 11  1  0  0  0  0
 11 12  1  0  0  0  0
 11 13  1  0  0  0  0
 11 14  1  0  0  0  0
 14 15  1  0  0  0  0
 14 16  1  0  0  0  0
 14 17  1  0  0  0  0
 17 18  1  0  0  0  0
 17 19  1  0  0  0  0
 17 20  1  0  0  0  0
 20 21  1  0  0  0  0
 20 22  1  0  0  0  0
 22 23  1  0  0  0  0
 22 24  1  0  0  0  0
 22 25  1  0  0  0  0
 20 26  1  0  0  0  0
 26 27  1  0  0  0  0
 26 28  1  0  0  0  0
 26 29  1  0  0  0  0
M  END
> <VM2 Rank>
14

> <Conf_Id>
1189

> <Probability>
1.74

> <Sum Probability>
53.96

> <Delta G>
1.082

> <G>
34.784

> <E>
-2.717

> <-TS>
37.502

> <U+W>
-26.862

> <U>
25.086

> <W>
-51.948

> <W(PB)>
-54.500

> <W(SA)>
2.552

> <Valence>
4.251

> <Coulomb>
19.539

> <VdW>
1.297

> <VdW6>
-8.775

> <VdW12>
10.072

> <Bond>
0.238

> <Angle>
1.421

> <Pdih>
2.592

> <Idih>
0.000

> <Tether>
0.000

$$$$
VeraChem MOL file


 29 28  0  0  0  0  0  0  0  0999 V2000     
   20.6835   19.4591   19.1718 C   0  0  0  0  0  0  0  0  0  0  0  0
   21.3879   20.2458   19.4719 H   0  0  0  0  0  0  0  0  0  0  0  0
   21.2236   18.5035   19.1577 H   0  0  0  0  0  0  0  0  0  0  0  0
   20.3536   19.6750   18.1472 H   0  0  0  0  0  0  0  0  0  0  0  0
   19.4764   19.3998   20.1316 C   0  0  0  0  0  0  0  0  0  0  0  0
   18.7739   18.6284   19.7860 H   0  0  0  0  0  0  0  0  0  0  0  0
   18.9373   20.3570   20.0995 H   0  0  0  0  0  0  0  0  0  0  0  0
   19.9132   19.0963   21.5818 C   0  0  0  0  0  0  0  0  0  0  0  0
   20.4497   18.1378   21.6092 H   0  0  0  0  0  0  0  0  0  0  0  0
   20.6208   19.8684   21.9108 H   0  0  0  0  0  0  0  0  0  0  0  0
   18.7038   19.0406   22.5458 C   0  0  0  0  0  0  0  0  0  0  0  0
   17.9707   18.3200   22.1576 H   0  0  0  0  0  0  0  0  0  0  0  0
   18.1979   20.0158   22.5629 H   0  0  0  0  0  0  0  0  0  0  0  0
   19.0807   18.6258   23.9893 C   0  0  0  0  0  0  0  0  0  0  0  0
   18.1522   18.4982   24.5610 H   0  0  0  0  0  0  0  0  0  0  0  0
   19.5673   17.6418   23.9638 H   0  0  0  0  0  0  0  0  0  0  0  0
   19.9950   19.6561   24.7068 C   0  0  0  0  0  0  0  0  0  0  0  0
   19.5455   20.6547   24.6282 H   0  0  0  0  0  0  0  0  0  0  0  0
   20.9609   19.7161   24.1901 H   0  0  0  0  0  0  0  0  0  0  0  0
   20.2634   19.3559   26.2004 C   0  0  2  0  0  0  0  0  0  0  0  0
   20.9052   20.1558   26.5825 H   0  0  0  0  0  0  0  0  0  0  0  0
   21.0106   18.0253   26.3966 C   0  0  0  0  0  0  0  0  0  0  0  0
   21.9241   17.9981   25.7897 H   0  0  0  0  0  0  0  0  0  0  0  0
   21.3046   17.9017   27.4461 H   0  0  0  0  0  0  0  0  0  0  0  0
   20.3879   17.1663   26.1197 H   0  0  0  0  0  0  0  0  0  0  0  0
   19.0095   19.3971   27.0298 N   0  3  0  0  0  0  0  0  0  0  0  0
   18.5282   20.2964   26.9382 H   0  0  0  0  0  0  0  0  0  0  0  0
   19.2139   19.2591   28.0238 H   0  0  0  0  0  0  0  0  0  0  0  0
   18.3529   18.6655   26.7470 H   0  0  0  0  0  0  0  0  0  0  0  0
  1  2  1  0  0  0  0
  1  3  1  0  0  0  0
  1  4  1  0  0  0  0
  1  5  1  0  0  0  0
  5  6  1  0  0  0  0
  5  7  1  0  0  0  0
  5  8  1  0  0  0  0
  8  9  1  0  0  0  0
  8 10  1  0  0  0  0
  8 11  1  0  0  0  0
 11 12  1  0  0  0  0
 11 13  1  0  0  0  0
 11 14  1  0  0  0  0
 14 15  1  0  0  0  0
 14 16  1  0  0  0  0
 14 17  1  0  0  0  0
 17 18  1  0  0  0  0
 17 19  1  0  0  0  0
 17 20  1  0  0  0  0
 20 21  1  0  0  0  0
 20 22  1  0  0  0  0
 22 23  1  0  0  0  0
 22 24  1  0  0  0  0
 22 25  1  0  0  0  0
 20 26  1  0  0  0  0
 26 27  1  0  0  0  0
 26 28  1  0  0  0  0
 26 29  1  0  0  0  0
M  END
> <VM2 Rank>
15

> <Conf_Id>
664

> <Probability>
1.71

> <Sum Probability>
55.67

> <Delta G>
1.090

> <G>
34.791

> <E>
-2.851

> <-TS>
37.642

> <U+W>
-26.996

> <U>
25.162

> <W>
-52.157

> <W(PB)>
-54.678

> <W(SA)>
2.521

> <Valence>
4.202

> <Coulomb>
19.686

> <VdW>
1.274

> <VdW6>
-9.288

> <VdW12>
10.561

> <Bond>
0.271

> <Angle>
1.436

> <Pdih>
2.495

> <Idih>
0.000

> <Tether>
0.000

$$$$
VeraChem MOL file


 29 28  0  0  0  0  0  0  0  0999 V2000     
   18.5742   19.2294   19.2953 C   0  0  0  0  0  0  0  0  0  0  0  0
   18.7103   19.5552   18.2559 H   0  0  0  0  0  0  0  0  0  0  0  0
   18.3247   18.1604   19.2836 H   0  0  0  0  0  0  0  0  0  0  0  0
   17.7173   19.7761   19.7103 H   0  0  0  0  0  0  0  0  0  0  0  0
   19.8519   19.4917   20.1203 C   0  0  0  0  0  0  0  0  0  0  0  0
   20.0944   20.5631   20.0863 H   0  0  0  0  0  0  0  0  0  0  0  0
   20.6973   18.9604   19.6612 H   0  0  0  0  0  0  0  0  0  0  0  0
   19.6871   19.0410   21.5885 C   0  0  0  0  0  0  0  0  0  0  0  0
   18.8348   19.5719   22.0324 H   0  0  0  0  0  0  0  0  0  0  0  0
   19.4468   17.9693   21.6174 H   0  0  0  0  0  0  0  0  0  0  0  0
   20.9663   19.3074   22.4178 C   0  0  0  0  0  0  0  0  0  0  0  0
   21.1799   20.3851   22.4338 H   0  0  0  0  0  0  0  0  0  0  0  0
   21.8218   18.8311   21.9194 H   0  0  0  0  0  0  0  0  0  0  0  0
   20.8838   18.7727   23.8686 C   0  0  0  0  0  0  0  0  0  0  0  0
   20.7018   17.6902   23.8413 H   0  0  0  0  0  0  0  0  0  0  0  0
   21.8628   18.9118   24.3477 H   0  0  0  0  0  0  0  0  0  0  0  0
   19.7987   19.4767   24.7236 C   0  0  0  0  0  0  0  0  0  0  0  0
   18.7997   19.2336   24.3399 H   0  0  0  0  0  0  0  0  0  0  0  0
   19.9198   20.5628   24.6180 H   0  0  0  0  0  0  0  0  0  0  0  0
   19.8678   19.1198   26.2258 C   0  0  2  0  0  0  0  0  0  0  0  0
   20.8794   19.3350   26.5835 H   0  0  0  0  0  0  0  0  0  0  0  0
   19.5666   17.6322   26.4817 C   0  0  0  0  0  0  0  0  0  0  0  0
   18.5823   17.3528   26.0856 H   0  0  0  0  0  0  0  0  0  0  0  0
   20.3204   16.9871   26.0157 H   0  0  0  0  0  0  0  0  0  0  0  0
   19.5745   17.4159   27.5570 H   0  0  0  0  0  0  0  0  0  0  0  0
   18.9398   19.9850   27.0324 N   0  3  0  0  0  0  0  0  0  0  0  0
   19.1505   20.9798   26.9106 H   0  0  0  0  0  0  0  0  0  0  0  0
   19.0118   19.7790   28.0330 H   0  0  0  0  0  0  0  0  0  0  0  0
   17.9635   19.8416   26.7605 H   0  0  0  0  0  0  0  0  0  0  0  0
  1  2  1  0  0  0  0
  1  3  1  0  0  0  0
  1  4  1  0  0  0  0
  1  5  1  0  0  0  0
  5  6  1  0  0  0  0
  5  7  1  0  0  0  0
  5  8  1  0  0  0  0
  8  9  1  0  0  0  0
  8 10  1  0  0  0  0
  8 11  1  0  0  0  0
 11 12  1  0  0  0  0
 11 13  1  0  0  0  0
 11 14  1  0  0  0  0
 14 15  1  0  0  0  0
 14 16  1  0  0  0  0
 14 17  1  0  0  0  0
 17 18  1  0  0  0  0
 17 19  1  0  0  0  0
 17 20  1  0  0  0  0
 20 21  1  0  0  0  0
 20 22  1  0  0  0  0
 22 23  1  0  0  0  0
 22 24  1  0  0  0  0
 22 25  1  0  0  0  0
 20 26  1  0  0  0  0
 26 27  1  0  0  0  0
 26 28  1  0  0  0  0
 26 29  1  0  0  0  0
M  END
> <VM2 Rank>
16

> <Conf_Id>
591

> <Probability>
1.64

> <Sum Probability>
57.31

> <Delta G>
1.115

> <G>
34.817

> <E>
-2.717

> <-TS>
37.534

> <U+W>
-26.861

> <U>
25.129

> <W>
-51.990

> <W(PB)>
-54.525

> <W(SA)>
2.535

> <Valence>
4.206

> <Coulomb>
19.678

> <VdW>
1.245

> <VdW6>
-8.834

> <VdW12>
10.079

> <Bond>
0.240

> <Angle>
1.353

> <Pdih>
2.613

> <Idih>
0.000

> <Tether>
0.000

$$$$
VeraChem MOL file


 29 28  0  0  0  0  0  0  0  0999 V2000     
   20.3069   18.5736   19.5179 C   0  0  0  0  0  0  0  0  0  0  0  0
   21.2471   19.0676   19.7929 H   0  0  0  0  0  0  0  0  0  0  0  0
   20.3515   17.5323   19.8622 H   0  0  0  0  0  0  0  0  0  0  0  0
   20.2478   18.5628   18.4219 H   0  0  0  0  0  0  0  0  0  0  0  0
   19.0853   19.3054   20.1183 C   0  0  0  0  0  0  0  0  0  0  0  0
   18.1679   18.8478   19.7225 H   0  0  0  0  0  0  0  0  0  0  0  0
   19.0779   20.3511   19.7802 H   0  0  0  0  0  0  0  0  0  0  0  0
   19.0391   19.2546   21.6644 C   0  0  0  0  0  0  0  0  0  0  0  0
   18.0949   19.7046   22.0006 H   0  0  0  0  0  0  0  0  0  0  0  0
   19.0168   18.2057   21.9880 H   0  0  0  0  0  0  0  0  0  0  0  0
   20.2219   19.9951   22.3379 C   0  0  0  0  0  0  0  0  0  0  0  0
   20.3031   21.0040   21.9106 H   0  0  0  0  0  0  0  0  0  0  0  0
   21.1661   19.4841   22.1079 H   0  0  0  0  0  0  0  0  0  0  0  0
   20.0728   20.1219   23.8738 C   0  0  0  0  0  0  0  0  0  0  0  0
   20.8980   20.7402   24.2538 H   0  0  0  0  0  0  0  0  0  0  0  0
   19.1465   20.6656   24.1024 H   0  0  0  0  0  0  0  0  0  0  0  0
   20.0861   18.7563   24.6069 C   0  0  0  0  0  0  0  0  0  0  0  0
   20.9670   18.1870   24.2816 H   0  0  0  0  0  0  0  0  0  0  0  0
   19.2061   18.1655   24.3226 H   0  0  0  0  0  0  0  0  0  0  0  0
   20.1269   18.9023   26.1432 C   0  0  2  0  0  0  0  0  0  0  0  0
   21.0002   19.5067   26.4073 H   0  0  0  0  0  0  0  0  0  0  0  0
   20.2749   17.5243   26.8077 C   0  0  0  0  0  0  0  0  0  0  0  0
   20.3418   17.6242   27.8981 H   0  0  0  0  0  0  0  0  0  0  0  0
   19.4195   16.8775   26.5754 H   0  0  0  0  0  0  0  0  0  0  0  0
   21.1870   17.0213   26.4631 H   0  0  0  0  0  0  0  0  0  0  0  0
   18.9221   19.6225   26.6839 N   0  3  0  0  0  0  0  0  0  0  0  0
   18.9758   19.7302   27.7009 H   0  0  0  0  0  0  0  0  0  0  0  0
   18.0587   19.1145   26.4741 H   0  0  0  0  0  0  0  0  0  0  0  0
   18.8352   20.5592   26.2806 H   0  0  0  0  0  0  0  0  0  0  0  0
  1  2  1  0  0  0  0
  1  3  1  0  0  0  0
  1  4  1  0  0  0  0
  1  5  1  0  0  0  0
  5  6  1  0  0  0  0
  5  7  1  0  0  0  0
  5  8  1  0  0  0  0
  8  9  1  0  0  0  0
  8 10  1  0  0  0  0
  8 11  1  0  0  0  0
 11 12  1  0  0  0  0
 11 13  1  0  0  0  0
 11 14  1  0  0  0  0
 14 15  1  0  0  0  0
 14 16  1  0  0  0  0
 14 17  1  0  0  0  0
 17 18  1  0  0  0  0
 17 19  1  0  0  0  0
 17 20  1  0  0  0  0
 20 21  1  0  0  0  0
 20 22  1  0  0  0  0
 22 23  1  0  0  0  0
 22 24  1  0  0  0  0
 22 25  1  0  0  0  0
 20 26  1  0  0  0  0
 26 27  1  0  0  0  0
 26 28  1  0  0  0  0
 26 29  1  0  0  0  0
M  END
> <VM2 Rank>
17

> <Conf_Id>
619

> <Probability>
1.60

> <Sum Probability>
58.91

> <Delta G>
1.132

> <G>
34.834

> <E>
-2.802

> <-TS>
37.636

> <U+W>
-26.946

> <U>
25.270

> <W>
-52.217

> <W(PB)>
-54.703

> <W(SA)>
2.486

> <Valence>
4.168

> <Coulomb>
19.867

> <VdW>
1.236

> <VdW6>
-9.311

> <VdW12>
10.547

> <Bond>
0.263

> <Angle>
1.298

> <Pdih>
2.606

> <Idih>
0.000

> <Tether>
0.000

$$$$
VeraChem MOL file


 29 28  0  0  0  0  0  0  0  0999 V2000     
   20.9124   19.7242   19.6765 C   0  0  0  0  0  0  0  0  0  0  0  0
   20.8879   20.4654   18.8671 H   0  0  0  0  0  0  0  0  0  0  0  0
   21.8819   19.8112   20.1841 H   0  0  0  0  0  0  0  0  0  0  0  0
   20.8526   18.7266   19.2220 H   0  0  0  0  0  0  0  0  0  0  0  0
   19.7475   19.9552   20.6622 C   0  0  0  0  0  0  0  0  0  0  0  0
   18.7938   19.8964   20.1192 H   0  0  0  0  0  0  0  0  0  0  0  0
   19.8154   20.9714   21.0751 H   0  0  0  0  0  0  0  0  0  0  0  0
   19.7583   18.9236   21.8117 C   0  0  0  0  0  0  0  0  0  0  0  0
   19.6873   17.9096   21.3946 H   0  0  0  0  0  0  0  0  0  0  0  0
   20.7194   18.9859   22.3388 H   0  0  0  0  0  0  0  0  0  0  0  0
   18.5943   19.1576   22.8040 C   0  0  0  0  0  0  0  0  0  0  0  0
   17.6463   19.1602   22.2484 H   0  0  0  0  0  0  0  0  0  0  0  0
   18.6852   20.1564   23.2510 H   0  0  0  0  0  0  0  0  0  0  0  0
   18.5044   18.0818   23.9171 C   0  0  0  0  0  0  0  0  0  0  0  0
   17.6301   18.2944   24.5467 H   0  0  0  0  0  0  0  0  0  0  0  0
   18.3051   17.1051   23.4548 H   0  0  0  0  0  0  0  0  0  0  0  0
   19.7664   17.9605   24.8124 C   0  0  0  0  0  0  0  0  0  0  0  0
   20.5957   17.5621   24.2139 H   0  0  0  0  0  0  0  0  0  0  0  0
   19.5773   17.2147   25.5959 H   0  0  0  0  0  0  0  0  0  0  0  0
   20.2057   19.2889   25.4669 C   0  0  2  0  0  0  0  0  0  0  0  0
   20.3920   20.0184   24.6730 H   0  0  0  0  0  0  0  0  0  0  0  0
   21.5108   19.0928   26.2540 C   0  0  0  0  0  0  0  0  0  0  0  0
   22.3099   18.7259   25.5979 H   0  0  0  0  0  0  0  0  0  0  0  0
   21.8474   20.0415   26.6900 H   0  0  0  0  0  0  0  0  0  0  0  0
   21.3784   18.3699   27.0687 H   0  0  0  0  0  0  0  0  0  0  0  0
   19.1361   19.8714   26.3493 N   0  3  0  0  0  0  0  0  0  0  0  0
   18.2717   20.0342   25.8258 H   0  0  0  0  0  0  0  0  0  0  0  0
   19.4276   20.7672   26.7508 H   0  0  0  0  0  0  0  0  0  0  0  0
   18.9127   19.2444   27.1267 H   0  0  0  0  0  0  0  0  0  0  0  0
  1  2  1  0  0  0  0
  1  3  1  0  0  0  0
  1  4  1  0  0  0  0
  1  5  1  0  0  0  0
  5  6  1  0  0  0  0
  5  7  1  0  0  0  0
  5  8  1  0  0  0  0
  8  9  1  0  0  0  0
  8 10  1  0  0  0  0
  8 11  1  0  0  0  0
 11 12  1  0  0  0  0
 11 13  1  0  0  0  0
 11 14  1  0  0  0  0
 14 15  1  0  0  0  0
 14 16  1  0  0  0  0
 14 17  1  0  0  0  0
 17 18  1  0  0  0  0
 17 19  1  0  0  0  0
 17 20  1  0  0  0  0
 20 21  1  0  0  0  0
 20 22  1  0  0  0  0
 22 23  1  0  0  0  0
 22 24  1  0  0  0  0
 22 25  1  0  0  0  0
 20 26  1  0  0  0  0
 26 27  1  0  0  0  0
 26 28  1  0  0  0  0
 26 29  1  0  0  0  0
M  END
> <VM2 Rank>
18

> <Conf_Id>
229

> <Probability>
1.59

> <Sum Probability>
60.50

> <Delta G>
1.135

> <G>
34.837

> <E>
-3.023

> <-TS>
37.860

> <U+W>
-27.167

> <U>
25.092

> <W>
-52.259

> <W(PB)>
-54.739

> <W(SA)>
2.480

> <Valence>
3.930

> <Coulomb>
20.383

> <VdW>
0.779

> <VdW6>
-9.977

> <VdW12>
10.756

> <Bond>
0.263

> <Angle>
1.407

> <Pdih>
2.259

> <Idih>
0.000

> <Tether>
0.000

$$$$
VeraChem MOL file


 29 28  0  0  0  0  0  0  0  0999 V2000     
   19.8883   20.2398   19.4605 C   0  0  0  0  0  0  0  0  0  0  0  0
   19.0110   20.8842   19.6018 H   0  0  0  0  0  0  0  0  0  0  0  0
   20.7255   20.6694   20.0244 H   0  0  0  0  0  0  0  0  0  0  0  0
   20.1581   20.2682   18.3968 H   0  0  0  0  0  0  0  0  0  0  0  0
   19.5898   18.7897   19.9040 C   0  0  0  0  0  0  0  0  0  0  0  0
   20.4910   18.1728   19.7814 H   0  0  0  0  0  0  0  0  0  0  0  0
   18.8315   18.3632   19.2325 H   0  0  0  0  0  0  0  0  0  0  0  0
   19.0781   18.6850   21.3609 C   0  0  0  0  0  0  0  0  0  0  0  0
   18.1659   19.2871   21.4733 H   0  0  0  0  0  0  0  0  0  0  0  0
   18.7867   17.6433   21.5538 H   0  0  0  0  0  0  0  0  0  0  0  0
   20.1244   19.1206   22.4146 C   0  0  0  0  0  0  0  0  0  0  0  0
   20.3726   20.1813   22.2777 H   0  0  0  0  0  0  0  0  0  0  0  0
   21.0532   18.5529   22.2653 H   0  0  0  0  0  0  0  0  0  0  0  0
   19.6118   18.9021   23.8561 C   0  0  0  0  0  0  0  0  0  0  0  0
   18.6811   19.4675   23.9964 H   0  0  0  0  0  0  0  0  0  0  0  0
   19.3656   17.8407   23.9911 H   0  0  0  0  0  0  0  0  0  0  0  0
   20.6628   19.3408   24.9089 C   0  0  0  0  0  0  0  0  0  0  0  0
   20.9349   20.3895   24.7314 H   0  0  0  0  0  0  0  0  0  0  0  0
   21.5843   18.7612   24.7649 H   0  0  0  0  0  0  0  0  0  0  0  0
   20.2100   19.1964   26.3811 C   0  0  2  0  0  0  0  0  0  0  0  0
   21.0256   19.5669   27.0098 H   0  0  0  0  0  0  0  0  0  0  0  0
   19.9551   17.7290   26.7672 C   0  0  0  0  0  0  0  0  0  0  0  0
   19.7701   17.6428   27.8449 H   0  0  0  0  0  0  0  0  0  0  0  0
   19.0838   17.3173   26.2442 H   0  0  0  0  0  0  0  0  0  0  0  0
   20.8261   17.1061   26.5285 H   0  0  0  0  0  0  0  0  0  0  0  0
   19.0157   20.0526   26.7008 N   0  3  0  0  0  0  0  0  0  0  0  0
   18.1964   19.7629   26.1609 H   0  0  0  0  0  0  0  0  0  0  0  0
   19.1929   21.0385   26.4882 H   0  0  0  0  0  0  0  0  0  0  0  0
   18.7673   19.9929   27.6924 H   0  0  0  0  0  0  0  0  0  0  0  0
  1  2  1  0  0  0  0
  1  3  1  0  0  0  0
  1  4  1  0  0  0  0
  1  5  1  0  0  0  0
  5  6  1  0  0  0  0
  5  7  1  0  0  0  0
  5  8  1  0  0  0  0
  8  9  1  0  0  0  0
  8 10  1  0  0  0  0
  8 11  1  0  0  0  0
 11 12  1  0  0  0  0
 11 13  1  0  0  0  0
 11 14  1  0  0  0  0
 14 15  1  0  0  0  0
 14 16  1  0  0  0  0
 14 17  1  0  0  0  0
 17 18  1  0  0  0  0
 17 19  1  0  0  0  0
 17 20  1  0  0  0  0
 20 21  1  0  0  0  0
 20 22  1  0  0  0  0
 22 23  1  0  0  0  0
 22 24  1  0  0  0  0
 22 25  1  0  0  0  0
 20 26  1  0  0  0  0
 26 27  1  0  0  0  0
 26 28  1  0  0  0  0
 26 29  1  0  0  0  0
M  END
> <VM2 Rank>
19

> <Conf_Id>
670

> <Probability>
1.56

> <Sum Probability>
62.06

> <Delta G>
1.146

> <G>
34.848

> <E>
-2.793

> <-TS>
37.641

> <U+W>
-26.938

> <U>
25.147

> <W>
-52.084

> <W(PB)>
-54.573

> <W(SA)>
2.489

> <Valence>
4.181

> <Coulomb>
19.656

> <VdW>
1.310

> <VdW6>
-9.192

> <VdW12>
10.501

> <Bond>
0.259

> <Angle>
1.449

> <Pdih>
2.473

> <Idih>
0.000

> <Tether>
0.000

$$$$
VeraChem MOL file


 29 28  0  0  0  0  0  0  0  0999 V2000     
   20.4988   18.9687   19.3630 C   0  0  0  0  0  0  0  0  0  0  0  0
   21.3948   19.2706   19.9194 H   0  0  0  0  0  0  0  0  0  0  0  0
   20.4414   17.8725   19.3709 H   0  0  0  0  0  0  0  0  0  0  0  0
   20.6329   19.2905   18.3222 H   0  0  0  0  0  0  0  0  0  0  0  0
   19.2200   19.5964   19.9625 C   0  0  0  0  0  0  0  0  0  0  0  0
   18.3707   19.3665   19.3040 H   0  0  0  0  0  0  0  0  0  0  0  0
   19.3148   20.6912   19.9713 H   0  0  0  0  0  0  0  0  0  0  0  0
   18.8951   19.0877   21.3876 C   0  0  0  0  0  0  0  0  0  0  0  0
   17.9201   19.4950   21.6891 H   0  0  0  0  0  0  0  0  0  0  0  0
   18.7816   17.9950   21.3699 H   0  0  0  0  0  0  0  0  0  0  0  0
   19.9565   19.4855   22.4411 C   0  0  0  0  0  0  0  0  0  0  0  0
   20.1042   20.5740   22.4194 H   0  0  0  0  0  0  0  0  0  0  0  0
   20.9220   19.0269   22.1901 H   0  0  0  0  0  0  0  0  0  0  0  0
   19.5434   19.0482   23.8647 C   0  0  0  0  0  0  0  0  0  0  0  0
   18.5800   19.5097   24.1184 H   0  0  0  0  0  0  0  0  0  0  0  0
   19.3904   17.9610   23.8736 H   0  0  0  0  0  0  0  0  0  0  0  0
   20.6129   19.4425   24.9165 C   0  0  0  0  0  0  0  0  0  0  0  0
   20.7909   20.5245   24.8612 H   0  0  0  0  0  0  0  0  0  0  0  0
   21.5681   18.9660   24.6591 H   0  0  0  0  0  0  0  0  0  0  0  0
   20.2549   19.0805   26.3773 C   0  0  2  0  0  0  0  0  0  0  0  0
   21.0722   19.4390   27.0107 H   0  0  0  0  0  0  0  0  0  0  0  0
   20.1381   17.5604   26.5849 C   0  0  0  0  0  0  0  0  0  0  0  0
   21.0410   17.0480   26.2303 H   0  0  0  0  0  0  0  0  0  0  0  0
   20.0200   17.3270   27.6501 H   0  0  0  0  0  0  0  0  0  0  0  0
   19.2745   17.1434   26.0533 H   0  0  0  0  0  0  0  0  0  0  0  0
   19.0162   19.7861   26.8563 N   0  3  0  0  0  0  0  0  0  0  0  0
   18.1938   19.4963   26.3214 H   0  0  0  0  0  0  0  0  0  0  0  0
   19.1032   20.8022   26.7629 H   0  0  0  0  0  0  0  0  0  0  0  0
   18.8285   19.5842   27.8426 H   0  0  0  0  0  0  0  0  0  0  0  0
  1  2  1  0  0  0  0
  1  3  1  0  0  0  0
  1  4  1  0  0  0  0
  1  5  1  0  0  0  0
  5  6  1  0  0  0  0
  5  7  1  0  0  0  0
  5  8  1  0  0  0  0
  8  9  1  0  0  0  0
  8 10  1  0  0  0  0
  8 11  1  0  0  0  0
 11 12  1  0  0  0  0
 11 13  1  0  0  0  0
 11 14  1  0  0  0  0
 14 15  1  0  0  0  0
 14 16  1  0  0  0  0
 14 17  1  0  0  0  0
 17 18  1  0  0  0  0
 17 19  1  0  0  0  0
 17 20  1  0  0  0  0
 20 21  1  0  0  0  0
 20 22  1  0  0  0  0
 22 23  1  0  0  0  0
 22 24  1  0  0  0  0
 22 25  1  0  0  0  0
 20 26  1  0  0  0  0
 26 27  1  0  0  0  0
 26 28  1  0  0  0  0
 26 29  1  0  0  0  0
M  END
> <VM2 Rank>
20

> <Conf_Id>
537

> <Probability>
1.55

> <Sum Probability>
63.61

> <Delta G>
1.149

> <G>
34.851

> <E>
-2.789

> <-TS>
37.641

> <U+W>
-26.934

> <U>
25.121

> <W>
-52.055

> <W(PB)>
-54.568

> <W(SA)>
2.513

> <Valence>
4.180

> <Coulomb>
19.632

> <VdW>
1.309

> <VdW6>
-9.192

> <VdW12>
10.501

> <Bond>
0.259

> <Angle>
1.449

> <Pdih>
2.473

> <Idih>
0.000

> <Tether>
0.000

$$$$
VeraChem MOL file


 29 28  0  0  0  0  0  0  0  0999 V2000     
   19.1172   20.2363   19.2407 C   0  0  0  0  0  0  0  0  0  0  0  0
   18.1620   20.6096   19.6325 H   0  0  0  0  0  0  0  0  0  0  0  0
   19.8398   21.0626   19.2568 H   0  0  0  0  0  0  0  0  0  0  0  0
   18.9613   19.9452   18.1938 H   0  0  0  0  0  0  0  0  0  0  0  0
   19.6265   19.0381   20.0694 C   0  0  0  0  0  0  0  0  0  0  0  0
   20.5637   18.6656   19.6327 H   0  0  0  0  0  0  0  0  0  0  0  0
   18.8992   18.2164   20.0076 H   0  0  0  0  0  0  0  0  0  0  0  0
   19.8552   19.4213   21.5483 C   0  0  0  0  0  0  0  0  0  0  0  0
   20.5846   20.2410   21.6047 H   0  0  0  0  0  0  0  0  0  0  0  0
   18.9145   19.8007   21.9675 H   0  0  0  0  0  0  0  0  0  0  0  0
   20.3618   18.2186   22.3806 C   0  0  0  0  0  0  0  0  0  0  0  0
   21.2548   17.8017   21.8946 H   0  0  0  0  0  0  0  0  0  0  0  0
   19.6077   17.4196   22.3760 H   0  0  0  0  0  0  0  0  0  0  0  0
   20.7263   18.5805   23.8417 C   0  0  0  0  0  0  0  0  0  0  0  0
   21.2108   17.7051   24.2927 H   0  0  0  0  0  0  0  0  0  0  0  0
   21.4745   19.3851   23.8456 H   0  0  0  0  0  0  0  0  0  0  0  0
   19.5039   18.9977   24.7005 C   0  0  0  0  0  0  0  0  0  0  0  0
   18.7610   18.1892   24.7056 H   0  0  0  0  0  0  0  0  0  0  0  0
   19.0189   19.8640   24.2349 H   0  0  0  0  0  0  0  0  0  0  0  0
   19.8659   19.3801   26.1542 C   0  0  2  0  0  0  0  0  0  0  0  0
   20.6500   20.1428   26.1237 H   0  0  0  0  0  0  0  0  0  0  0  0
   20.3859   18.1771   26.9618 C   0  0  0  0  0  0  0  0  0  0  0  0
   19.6585   17.3557   26.9632 H   0  0  0  0  0  0  0  0  0  0  0  0
   21.3306   17.7996   26.5542 H   0  0  0  0  0  0  0  0  0  0  0  0
   20.5757   18.4644   28.0033 H   0  0  0  0  0  0  0  0  0  0  0  0
   18.6933   20.0064   26.8569 N   0  3  0  0  0  0  0  0  0  0  0  0
   18.3568   20.8374   26.3619 H   0  0  0  0  0  0  0  0  0  0  0  0
   18.9389   20.2970   27.8076 H   0  0  0  0  0  0  0  0  0  0  0  0
   17.9088   19.3529   26.9303 H   0  0  0  0  0  0  0  0  0  0  0  0
  1  2  1  0  0  0  0
  1  3  1  0  0  0  0
  1  4  1  0  0  0  0
  1  5  1  0  0  0  0
  5  6  1  0  0  0  0
  5  7  1  0  0  0  0
  5  8  1  0  0  0  0
  8  9  1  0  0  0  0
  8 10  1  0  0  0  0
  8 11  1  0  0  0  0
 11 12  1  0  0  0  0
 11 13  1  0  0  0  0
 11 14  1  0  0  0  0
 14 15  1  0  0  0  0
 14 16  1  0  0  0  0
 14 17  1  0  0  0  0
 17 18  1  0  0  0  0
 17 19  1  0  0  0  0
 17 20  1  0  0  0  0
 20 21  1  0  0  0  0
 20 22  1  0  0  0  0
 22 23  1  0  0  0  0
 22 24  1  0  0  0  0
 22 25  1  0  0  0  0
 20 26  1  0  0  0  0
 26 27  1  0  0  0  0
 26 28  1  0  0  0  0
 26 29  1  0  0  0  0
M  END
> <VM2 Rank>
21

> <Conf_Id>
666

> <Probability>
1.55

> <Sum Probability>
65.16

> <Delta G>
1.150

> <G>
34.852

> <E>
-2.569

> <-TS>
37.421

> <U+W>
-26.713

> <U>
25.442

> <W>
-52.155

> <W(PB)>
-54.677

> <W(SA)>
2.522

> <Valence>
4.343

> <Coulomb>
19.740

> <VdW>
1.360

> <VdW6>
-8.739

> <VdW12>
10.099

> <Bond>
0.251

> <Angle>
1.483

> <Pdih>
2.608

> <Idih>
0.000

> <Tether>
0.000

$$$$
VeraChem MOL file


 29 28  0  0  0  0  0  0  0  0999 V2000     
   18.7344   19.0241   19.3168 C   0  0  0  0  0  0  0  0  0  0  0  0
   18.0067   19.8416   19.4021 H   0  0  0  0  0  0  0  0  0  0  0  0
   19.4881   19.3132   18.5727 H   0  0  0  0  0  0  0  0  0  0  0  0
   18.2060   18.1408   18.9351 H   0  0  0  0  0  0  0  0  0  0  0  0
   19.3890   18.7201   20.6810 C   0  0  0  0  0  0  0  0  0  0  0  0
   20.0891   17.8804   20.5700 H   0  0  0  0  0  0  0  0  0  0  0  0
   18.6108   18.3959   21.3844 H   0  0  0  0  0  0  0  0  0  0  0  0
   20.1367   19.9531   21.2414 C   0  0  0  0  0  0  0  0  0  0  0  0
   20.8521   20.3091   20.4873 H   0  0  0  0  0  0  0  0  0  0  0  0
   19.4259   20.7751   21.4037 H   0  0  0  0  0  0  0  0  0  0  0  0
   20.9089   19.6676   22.5528 C   0  0  0  0  0  0  0  0  0  0  0  0
   21.4999   20.5581   22.8079 H   0  0  0  0  0  0  0  0  0  0  0  0
   21.6306   18.8562   22.3850 H   0  0  0  0  0  0  0  0  0  0  0  0
   19.9911   19.3122   23.7472 C   0  0  0  0  0  0  0  0  0  0  0  0
   19.2378   20.1015   23.8698 H   0  0  0  0  0  0  0  0  0  0  0  0
   19.4514   18.3827   23.5288 H   0  0  0  0  0  0  0  0  0  0  0  0
   20.8023   19.1457   25.0586 C   0  0  0  0  0  0  0  0  0  0  0  0
   21.3735   20.0639   25.2487 H   0  0  0  0  0  0  0  0  0  0  0  0
   21.5465   18.3492   24.9259 H   0  0  0  0  0  0  0  0  0  0  0  0
   19.9549   18.8302   26.3138 C   0  0  2  0  0  0  0  0  0  0  0  0
   20.6422   18.7716   27.1635 H   0  0  0  0  0  0  0  0  0  0  0  0
   19.2370   17.4738   26.2024 C   0  0  0  0  0  0  0  0  0  0  0  0
   18.7594   17.2137   27.1550 H   0  0  0  0  0  0  0  0  0  0  0  0
   18.4581   17.4888   25.4310 H   0  0  0  0  0  0  0  0  0  0  0  0
   19.9484   16.6750   25.9582 H   0  0  0  0  0  0  0  0  0  0  0  0
   18.9817   19.9293   26.6401 N   0  3  0  0  0  0  0  0  0  0  0  0
   18.2885   20.0439   25.8966 H   0  0  0  0  0  0  0  0  0  0  0  0
   19.4573   20.8282   26.7604 H   0  0  0  0  0  0  0  0  0  0  0  0
   18.4732   19.7334   27.5072 H   0  0  0  0  0  0  0  0  0  0  0  0
  1  2  1  0  0  0  0
  1  3  1  0  0  0  0
  1  4  1  0  0  0  0
  1  5  1  0  0  0  0
  5  6  1  0  0  0  0
  5  7  1  0  0  0  0
  5  8  1  0  0  0  0
  8  9  1  0  0  0  0
  8 10  1  0  0  0  0
  8 11  1  0  0  0  0
 11 12  1  0  0  0  0
 11 13  1  0  0  0  0
 11 14  1  0  0  0  0
 14 15  1  0  0  0  0
 14 16  1  0  0  0  0
 14 17  1  0  0  0  0
 17 18  1  0  0  0  0
 17 19  1  0  0  0  0
 17 20  1  0  0  0  0
 20 21  1  0  0  0  0
 20 22  1  0  0  0  0
 22 23  1  0  0  0  0
 22 24  1  0  0  0  0
 22 25  1  0  0  0  0
 20 26  1  0  0  0  0
 26 27  1  0  0  0  0
 26 28  1  0  0  0  0
 26 29  1  0  0  0  0
M  END
> <VM2 Rank>
22

> <Conf_Id>
1000

> <Probability>
1.49

> <Sum Probability>
66.65

> <Delta G>
1.175

> <G>
34.877

> <E>
-2.752

> <-TS>
37.629

> <U+W>
-26.897

> <U>
25.354

> <W>
-52.250

> <W(PB)>
-54.739

> <W(SA)>
2.488

> <Valence>
4.221

> <Coulomb>
19.855

> <VdW>
1.278

> <VdW6>
-9.276

> <VdW12>
10.554

> <Bond>
0.264

> <Angle>
1.471

> <Pdih>
2.486

> <Idih>
0.000

> <Tether>
0.000

$$$$
VeraChem MOL file


 29 28  0  0  0  0  0  0  0  0999 V2000     
   18.6411   19.4585   19.3602 C   0  0  0  0  0  0  0  0  0  0  0  0
   19.4245   19.5574   18.5975 H   0  0  0  0  0  0  0  0  0  0  0  0
   18.2341   18.4405   19.3024 H   0  0  0  0  0  0  0  0  0  0  0  0
   17.8346   20.1590   19.1075 H   0  0  0  0  0  0  0  0  0  0  0  0
   19.1975   19.7536   20.7692 C   0  0  0  0  0  0  0  0  0  0  0  0
   18.3780   19.6850   21.4967 H   0  0  0  0  0  0  0  0  0  0  0  0
   19.5703   20.7868   20.8045 H   0  0  0  0  0  0  0  0  0  0  0  0
   20.3335   18.7749   21.1496 C   0  0  0  0  0  0  0  0  0  0  0  0
   19.9462   17.7468   21.1675 H   0  0  0  0  0  0  0  0  0  0  0  0
   21.1033   18.8004   20.3660 H   0  0  0  0  0  0  0  0  0  0  0  0
   21.0049   19.1006   22.5064 C   0  0  0  0  0  0  0  0  0  0  0  0
   21.4070   20.1228   22.4812 H   0  0  0  0  0  0  0  0  0  0  0  0
   21.8678   18.4328   22.6356 H   0  0  0  0  0  0  0  0  0  0  0  0
   20.0579   18.9408   23.7201 C   0  0  0  0  0  0  0  0  0  0  0  0
   19.2319   19.6579   23.6393 H   0  0  0  0  0  0  0  0  0  0  0  0
   19.6161   17.9360   23.6986 H   0  0  0  0  0  0  0  0  0  0  0  0
   20.8079   19.1617   25.0596 C   0  0  0  0  0  0  0  0  0  0  0  0
   21.2907   20.1476   25.0438 H   0  0  0  0  0  0  0  0  0  0  0  0
   21.6209   18.4287   25.1457 H   0  0  0  0  0  0  0  0  0  0  0  0
   19.9227   19.0713   26.3251 C   0  0  2  0  0  0  0  0  0  0  0  0
   20.5669   19.2706   27.1871 H   0  0  0  0  0  0  0  0  0  0  0  0
   19.3190   17.6682   26.5103 C   0  0  0  0  0  0  0  0  0  0  0  0
   18.8121   17.5941   27.4802 H   0  0  0  0  0  0  0  0  0  0  0  0
   18.5843   17.4364   25.7302 H   0  0  0  0  0  0  0  0  0  0  0  0
   20.1022   16.9004   26.4849 H   0  0  0  0  0  0  0  0  0  0  0  0
   18.8514   20.1264   26.3533 N   0  3  0  0  0  0  0  0  0  0  0  0
   18.1903   20.0048   25.5822 H   0  0  0  0  0  0  0  0  0  0  0  0
   19.2488   21.0669   26.2745 H   0  0  0  0  0  0  0  0  0  0  0  0
   18.3160   20.0923   27.2256 H   0  0  0  0  0  0  0  0  0  0  0  0
  1  2  1  0  0  0  0
  1  3  1  0  0  0  0
  1  4  1  0  0  0  0
  1  5  1  0  0  0  0
  5  6  1  0  0  0  0
  5  7  1  0  0  0  0
  5  8  1  0  0  0  0
  8  9  1  0  0  0  0
  8 10  1  0  0  0  0
  8 11  1  0  0  0  0
 11 12  1  0  0  0  0
 11 13  1  0  0  0  0
 11 14  1  0  0  0  0
 14 15  1  0  0  0  0
 14 16  1  0  0  0  0
 14 17  1  0  0  0  0
 17 18  1  0  0  0  0
 17 19  1  0  0  0  0
 17 20  1  0  0  0  0
 20 21  1  0  0  0  0
 20 22  1  0  0  0  0
 22 23  1  0  0  0  0
 22 24  1  0  0  0  0
 22 25  1  0  0  0  0
 20 26  1  0  0  0  0
 26 27  1  0  0  0  0
 26 28  1  0  0  0  0
 26 29  1  0  0  0  0
M  END
> <VM2 Rank>
23

> <Conf_Id>
906

> <Probability>
1.40

> <Sum Probability>
68.04

> <Delta G>
1.212

> <G>
34.914

> <E>
-2.714

> <-TS>
37.628

> <U+W>
-26.859

> <U>
25.544

> <W>
-52.404

> <W(PB)>
-54.894

> <W(SA)>
2.491

> <Valence>
4.218

> <Coulomb>
20.055

> <VdW>
1.271

> <VdW6>
-9.272

> <VdW12>
10.543

> <Bond>
0.264

> <Angle>
1.469

> <Pdih>
2.486

> <Idih>
0.000

> <Tether>
0.000

$$$$
VeraChem MOL file


 29 28  0  0  0  0  0  0  0  0999 V2000     
   19.7446   20.3593   19.2499 C   0  0  0  0  0  0  0  0  0  0  0  0
   19.8707   20.1199   18.1861 H   0  0  0  0  0  0  0  0  0  0  0  0
   18.7849   20.8794   19.3671 H   0  0  0  0  0  0  0  0  0  0  0  0
   20.5464   21.0521   19.5369 H   0  0  0  0  0  0  0  0  0  0  0  0
   19.7877   19.0758   20.1060 C   0  0  0  0  0  0  0  0  0  0  0  0
   20.7448   18.5606   19.9430 H   0  0  0  0  0  0  0  0  0  0  0  0
   18.9971   18.3890   19.7726 H   0  0  0  0  0  0  0  0  0  0  0  0
   19.6115   19.3846   21.6092 C   0  0  0  0  0  0  0  0  0  0  0  0
   20.4010   20.0784   21.9257 H   0  0  0  0  0  0  0  0  0  0  0  0
   18.6526   19.8972   21.7671 H   0  0  0  0  0  0  0  0  0  0  0  0
   19.6592   18.0983   22.4686 C   0  0  0  0  0  0  0  0  0  0  0  0
   20.6391   17.6138   22.3575 H   0  0  0  0  0  0  0  0  0  0  0  0
   18.9176   17.3850   22.0831 H   0  0  0  0  0  0  0  0  0  0  0  0
   19.3676   18.3424   23.9697 C   0  0  0  0  0  0  0  0  0  0  0  0
   18.3843   18.8198   24.0732 H   0  0  0  0  0  0  0  0  0  0  0  0
   19.2911   17.3641   24.4612 H   0  0  0  0  0  0  0  0  0  0  0  0
   20.4549   19.1964   24.6779 C   0  0  0  0  0  0  0  0  0  0  0  0
   20.5090   20.1862   24.2086 H   0  0  0  0  0  0  0  0  0  0  0  0
   21.4385   18.7334   24.5242 H   0  0  0  0  0  0  0  0  0  0  0  0
   20.2336   19.4029   26.1951 C   0  0  2  0  0  0  0  0  0  0  0  0
   21.0310   20.0620   26.5523 H   0  0  0  0  0  0  0  0  0  0  0  0
   20.3354   18.0848   26.9825 C   0  0  0  0  0  0  0  0  0  0  0  0
   19.5037   17.4083   26.7529 H   0  0  0  0  0  0  0  0  0  0  0  0
   21.2746   17.5657   26.7545 H   0  0  0  0  0  0  0  0  0  0  0  0
   20.3178   18.2812   28.0615 H   0  0  0  0  0  0  0  0  0  0  0  0
   18.9415   20.1115   26.4951 N   0  3  0  0  0  0  0  0  0  0  0  0
   18.1361   19.5535   26.2012 H   0  0  0  0  0  0  0  0  0  0  0  0
   18.8864   21.0124   26.0114 H   0  0  0  0  0  0  0  0  0  0  0  0
   18.8394   20.2949   27.4974 H   0  0  0  0  0  0  0  0  0  0  0  0
  1  2  1  0  0  0  0
  1  3  1  0  0  0  0
  1  4  1  0  0  0  0
  1  5  1  0  0  0  0
  5  6  1  0  0  0  0
  5  7  1  0  0  0  0
  5  8  1  0  0  0  0
  8  9  1  0  0  0  0
  8 10  1  0  0  0  0
  8 11  1  0  0  0  0
 11 12  1  0  0  0  0
 11 13  1  0  0  0  0
 11 14  1  0  0  0  0
 14 15  1  0  0  0  0
 14 16  1  0  0  0  0
 14 17  1  0  0  0  0
 17 18  1  0  0  0  0
 17 19  1  0  0  0  0
 17 20  1  0  0  0  0
 20 21  1  0  0  0  0
 20 22  1  0  0  0  0
 22 23  1  0  0  0  0
 22 24  1  0  0  0  0
 22 25  1  0  0  0  0
 20 26  1  0  0  0  0
 26 27  1  0  0  0  0
 26 28  1  0  0  0  0
 26 29  1  0  0  0  0
M  END
> <VM2 Rank>
24

> <Conf_Id>
302

> <Probability>
1.39

> <Sum Probability>
69.44

> <Delta G>
1.213

> <G>
34.915

> <E>
-2.676

> <-TS>
37.591

> <U+W>
-26.820

> <U>
25.474

> <W>
-52.294

> <W(PB)>
-54.793

> <W(SA)>
2.500

> <Valence>
4.286

> <Coulomb>
19.883

> <VdW>
1.305

> <VdW6>
-9.235

> <VdW12>
10.540

> <Bond>
0.276

> <Angle>
1.498

> <Pdih>
2.512

> <Idih>
0.000

> <Tether>
0.000

$$$$
VeraChem MOL file


 29 28  0  0  0  0  0  0  0  0999 V2000     
   20.9142   19.7970   20.0857 C   0  0  0  0  0  0  0  0  0  0  0  0
   21.5382   19.5254   20.9463 H   0  0  0  0  0  0  0  0  0  0  0  0
   20.9601   18.9791   19.3551 H   0  0  0  0  0  0  0  0  0  0  0  0
   21.3591   20.6872   19.6226 H   0  0  0  0  0  0  0  0  0  0  0  0
   19.4558   20.0798   20.5114 C   0  0  0  0  0  0  0  0  0  0  0  0
   18.9015   20.4609   19.6424 H   0  0  0  0  0  0  0  0  0  0  0  0
   19.4369   20.8864   21.2564 H   0  0  0  0  0  0  0  0  0  0  0  0
   18.7192   18.8295   21.0560 C   0  0  0  0  0  0  0  0  0  0  0  0
   17.6863   19.1084   21.3057 H   0  0  0  0  0  0  0  0  0  0  0  0
   18.6432   18.0845   20.2521 H   0  0  0  0  0  0  0  0  0  0  0  0
   19.3736   18.1609   22.2925 C   0  0  0  0  0  0  0  0  0  0  0  0
   20.3665   17.7743   22.0269 H   0  0  0  0  0  0  0  0  0  0  0  0
   18.7723   17.2838   22.5690 H   0  0  0  0  0  0  0  0  0  0  0  0
   19.4864   19.1005   23.5167 C   0  0  0  0  0  0  0  0  0  0  0  0
   20.1480   19.9440   23.2790 H   0  0  0  0  0  0  0  0  0  0  0  0
   18.4967   19.5203   23.7400 H   0  0  0  0  0  0  0  0  0  0  0  0
   20.0402   18.3586   24.7572 C   0  0  0  0  0  0  0  0  0  0  0  0
   21.0019   17.8979   24.4945 H   0  0  0  0  0  0  0  0  0  0  0  0
   19.3642   17.5383   25.0327 H   0  0  0  0  0  0  0  0  0  0  0  0
   20.2492   19.2891   25.9715 C   0  0  2  0  0  0  0  0  0  0  0  0
   20.9055   20.1098   25.6658 H   0  0  0  0  0  0  0  0  0  0  0  0
   20.9319   18.5264   27.1180 C   0  0  0  0  0  0  0  0  0  0  0  0
   21.1164   19.1912   27.9709 H   0  0  0  0  0  0  0  0  0  0  0  0
   20.3109   17.6906   27.4640 H   0  0  0  0  0  0  0  0  0  0  0  0
   21.8997   18.1225   26.7956 H   0  0  0  0  0  0  0  0  0  0  0  0
   18.9655   19.9141   26.4450 N   0  3  0  0  0  0  0  0  0  0  0  0
   18.5210   20.4620   25.7034 H   0  0  0  0  0  0  0  0  0  0  0  0
   19.1255   20.5431   27.2371 H   0  0  0  0  0  0  0  0  0  0  0  0
   18.2945   19.2033   26.7483 H   0  0  0  0  0  0  0  0  0  0  0  0
  1  2  1  0  0  0  0
  1  3  1  0  0  0  0
  1  4  1  0  0  0  0
  1  5  1  0  0  0  0
  5  6  1  0  0  0  0
  5  7  1  0  0  0  0
  5  8  1  0  0  0  0
  8  9  1  0  0  0  0
  8 10  1  0  0  0  0
  8 11  1  0  0  0  0
 11 12  1  0  0  0  0
 11 13  1  0  0  0  0
 11 14  1  0  0  0  0
 14 15  1  0  0  0  0
 14 16  1  0  0  0  0
 14 17  1  0  0  0  0
 17 18  1  0  0  0  0
 17 19  1  0  0  0  0
 17 20  1  0  0  0  0
 20 21  1  0  0  0  0
 20 22  1  0  0  0  0
 22 23  1  0  0  0  0
 22 24  1  0  0  0  0
 22 25  1  0  0  0  0
 20 26  1  0  0  0  0
 26 27  1  0  0  0  0
 26 28  1  0  0  0  0
 26 29  1  0  0  0  0
M  END
> <VM2 Rank>
25

> <Conf_Id>
1259

> <Probability>
1.32

> <Sum Probability>
70.76

> <Delta G>
1.245

> <G>
34.947

> <E>
-2.872

> <-TS>
37.819

> <U+W>
-27.016

> <U>
25.212

> <W>
-52.228

> <W(PB)>
-54.719

> <W(SA)>
2.490

> <Valence>
4.125

> <Coulomb>
19.951

> <VdW>
1.137

> <VdW6>
-9.556

> <VdW12>
10.693

> <Bond>
0.266

> <Angle>
1.520

> <Pdih>
2.339

> <Idih>
0.000

> <Tether>
0.000

$$$$
VeraChem MOL file


 29 28  0  0  0  0  0  0  0  0999 V2000     
   20.8436   19.4767   19.7587 C   0  0  0  0  0  0  0  0  0  0  0  0
   21.6201   19.3699   20.5262 H   0  0  0  0  0  0  0  0  0  0  0  0
   20.6282   18.4826   19.3459 H   0  0  0  0  0  0  0  0  0  0  0  0
   21.2605   20.0925   18.9513 H   0  0  0  0  0  0  0  0  0  0  0  0
   19.5652   20.1294   20.3315 C   0  0  0  0  0  0  0  0  0  0  0  0
   18.8677   20.3264   19.5054 H   0  0  0  0  0  0  0  0  0  0  0  0
   19.8126   21.1084   20.7652 H   0  0  0  0  0  0  0  0  0  0  0  0
   18.8486   19.2546   21.3883 C   0  0  0  0  0  0  0  0  0  0  0  0
   17.9013   19.7411   21.6590 H   0  0  0  0  0  0  0  0  0  0  0  0
   18.5826   18.2861   20.9429 H   0  0  0  0  0  0  0  0  0  0  0  0
   19.6849   19.0279   22.6702 C   0  0  0  0  0  0  0  0  0  0  0  0
   19.9973   20.0007   23.0721 H   0  0  0  0  0  0  0  0  0  0  0  0
   20.6004   18.4738   22.4248 H   0  0  0  0  0  0  0  0  0  0  0  0
   18.8892   18.2420   23.7397 C   0  0  0  0  0  0  0  0  0  0  0  0
   17.9849   18.8002   24.0164 H   0  0  0  0  0  0  0  0  0  0  0  0
   18.5399   17.2959   23.3034 H   0  0  0  0  0  0  0  0  0  0  0  0
   19.7225   17.9202   25.0067 C   0  0  0  0  0  0  0  0  0  0  0  0
   20.5643   17.2755   24.7211 H   0  0  0  0  0  0  0  0  0  0  0  0
   19.1070   17.3315   25.6998 H   0  0  0  0  0  0  0  0  0  0  0  0
   20.2688   19.1658   25.7399 C   0  0  2  0  0  0  0  0  0  0  0  0
   20.8957   19.7293   25.0426 H   0  0  0  0  0  0  0  0  0  0  0  0
   21.1400   18.7444   26.9337 C   0  0  0  0  0  0  0  0  0  0  0  0
   20.5569   18.1781   27.6707 H   0  0  0  0  0  0  0  0  0  0  0  0
   21.9760   18.1155   26.6031 H   0  0  0  0  0  0  0  0  0  0  0  0
   21.5629   19.6237   27.4351 H   0  0  0  0  0  0  0  0  0  0  0  0
   19.1732   20.0950   26.1853 N   0  3  0  0  0  0  0  0  0  0  0  0
   18.5432   19.6367   26.8491 H   0  0  0  0  0  0  0  0  0  0  0  0
   18.6094   20.4109   25.3915 H   0  0  0  0  0  0  0  0  0  0  0  0
   19.5519   20.9276   26.6456 H   0  0  0  0  0  0  0  0  0  0  0  0
  1  2  1  0  0  0  0
  1  3  1  0  0  0  0
  1  4  1  0  0  0  0
  1  5  1  0  0  0  0
  5  6  1  0  0  0  0
  5  7  1  0  0  0  0
  5  8  1  0  0  0  0
  8  9  1  0  0  0  0
  8 10  1  0  0  0  0
  8 11  1  0  0  0  0
 11 12  1  0  0  0  0
 11 13  1  0  0  0  0
 11 14  1  0  0  0  0
 14 15  1  0  0  0  0
 14 16  1  0  0  0  0
 14 17  1  0  0  0  0
 17 18  1  0  0  0  0
 17 19  1  0  0  0  0
 17 20  1  0  0  0  0
 20 21  1  0  0  0  0
 20 22  1  0  0  0  0
 22 23  1  0  0  0  0
 22 24  1  0  0  0  0
 22 25  1  0  0  0  0
 20 26  1  0  0  0  0
 26 27  1  0  0  0  0
 26 28  1  0  0  0  0
 26 29  1  0  0  0  0
M  END
> <VM2 Rank>
26

> <Conf_Id>
1260

> <Probability>
1.32

> <Sum Probability>
72.07

> <Delta G>
1.246

> <G>
34.948

> <E>
-2.744

> <-TS>
37.692

> <U+W>
-26.888

> <U>
25.267

> <W>
-52.155

> <W(PB)>
-54.665

> <W(SA)>
2.509

> <Valence>
3.967

> <Coulomb>
20.252

> <VdW>
1.048

> <VdW6>
-9.487

> <VdW12>
10.535

> <Bond>
0.252

> <Angle>
1.329

> <Pdih>
2.385

> <Idih>
0.000

> <Tether>
0.000

$$$$
VeraChem MOL file


 29 28  0  0  0  0  0  0  0  0999 V2000     
   18.3076   19.5301   20.2946 C   0  0  0  0  0  0  0  0  0  0  0  0
   18.3550   18.7224   19.5528 H   0  0  0  0  0  0  0  0  0  0  0  0
   17.8719   19.1256   21.2167 H   0  0  0  0  0  0  0  0  0  0  0  0
   17.6212   20.2971   19.9134 H   0  0  0  0  0  0  0  0  0  0  0  0
   19.7074   20.1339   20.5477 C   0  0  0  0  0  0  0  0  0  0  0  0
   19.6384   20.9249   21.3063 H   0  0  0  0  0  0  0  0  0  0  0  0
   20.0503   20.6291   19.6286 H   0  0  0  0  0  0  0  0  0  0  0  0
   20.7665   19.0818   20.9649 C   0  0  0  0  0  0  0  0  0  0  0  0
   20.9091   18.3747   20.1361 H   0  0  0  0  0  0  0  0  0  0  0  0
   21.7331   19.5868   21.0985 H   0  0  0  0  0  0  0  0  0  0  0  0
   20.4352   18.2797   22.2499 C   0  0  0  0  0  0  0  0  0  0  0  0
   21.2473   17.5609   22.4260 H   0  0  0  0  0  0  0  0  0  0  0  0
   19.5295   17.6791   22.0931 H   0  0  0  0  0  0  0  0  0  0  0  0
   20.2647   19.1666   23.5064 C   0  0  0  0  0  0  0  0  0  0  0  0
   21.1566   19.7955   23.6346 H   0  0  0  0  0  0  0  0  0  0  0  0
   19.4123   19.8423   23.3638 H   0  0  0  0  0  0  0  0  0  0  0  0
   20.0449   18.3161   24.7810 C   0  0  0  0  0  0  0  0  0  0  0  0
   20.8805   17.6113   24.8862 H   0  0  0  0  0  0  0  0  0  0  0  0
   19.1356   17.7102   24.6707 H   0  0  0  0  0  0  0  0  0  0  0  0
   19.9489   19.1682   26.0651 C   0  0  2  0  0  0  0  0  0  0  0  0
   20.8529   19.7806   26.1387 H   0  0  0  0  0  0  0  0  0  0  0  0
   19.8779   18.2614   27.3040 C   0  0  0  0  0  0  0  0  0  0  0  0
   18.9843   17.6252   27.2797 H   0  0  0  0  0  0  0  0  0  0  0  0
   20.7593   17.6105   27.3618 H   0  0  0  0  0  0  0  0  0  0  0  0
   19.8463   18.8605   28.2224 H   0  0  0  0  0  0  0  0  0  0  0  0
   18.7828   20.1182   26.0403 N   0  3  0  0  0  0  0  0  0  0  0  0
   18.8399   20.7592   25.2444 H   0  0  0  0  0  0  0  0  0  0  0  0
   18.7464   20.6877   26.8907 H   0  0  0  0  0  0  0  0  0  0  0  0
   17.8940   19.6156   25.9694 H   0  0  0  0  0  0  0  0  0  0  0  0
  1  2  1  0  0  0  0
  1  3  1  0  0  0  0
  1  4  1  0  0  0  0
  1  5  1  0  0  0  0
  5  6  1  0  0  0  0
  5  7  1  0  0  0  0
  5  8  1  0  0  0  0
  8  9  1  0  0  0  0
  8 10  1  0  0  0  0
  8 11  1  0  0  0  0
 11 12  1  0  0  0  0
 11 13  1  0  0  0  0
 11 14  1  0  0  0  0
 14 15  1  0  0  0  0
 14 16  1  0  0  0  0
 14 17  1  0  0  0  0
 17 18  1  0  0  0  0
 17 19  1  0  0  0  0
 17 20  1  0  0  0  0
 20 21  1  0  0  0  0
 20 22  1  0  0  0  0
 22 23  1  0  0  0  0
 22 24  1  0  0  0  0
 22 25  1  0  0  0  0
 20 26  1  0  0  0  0
 26 27  1  0  0  0  0
 26 28  1  0  0  0  0
 26 29  1  0  0  0  0
M  END
> <VM2 Rank>
27

> <Conf_Id>
254

> <Probability>
1.28

> <Sum Probability>
73.36

> <Delta G>
1.264

> <G>
34.965

> <E>
-2.856

> <-TS>
37.821

> <U+W>
-27.000

> <U>
25.448

> <W>
-52.448

> <W(PB)>
-54.940

> <W(SA)>
2.491

> <Valence>
4.119

> <Coulomb>
20.194

> <VdW>
1.135

> <VdW6>
-9.587

> <VdW12>
10.721

> <Bond>
0.268

> <Angle>
1.523

> <Pdih>
2.327

> <Idih>
0.000

> <Tether>
0.000

$$$$
VeraChem MOL file


 29 28  0  0  0  0  0  0  0  0999 V2000     
   19.6017   19.8387   19.2619 C   0  0  0  0  0  0  0  0  0  0  0  0
   18.7409   20.5082   19.3875 H   0  0  0  0  0  0  0  0  0  0  0  0
   20.5130   20.4010   19.4996 H   0  0  0  0  0  0  0  0  0  0  0  0
   19.6559   19.5570   18.2024 H   0  0  0  0  0  0  0  0  0  0  0  0
   19.4614   18.5807   20.1488 C   0  0  0  0  0  0  0  0  0  0  0  0
   20.3498   17.9444   20.0322 H   0  0  0  0  0  0  0  0  0  0  0  0
   18.6095   17.9880   19.7870 H   0  0  0  0  0  0  0  0  0  0  0  0
   19.2401   18.9019   21.6467 C   0  0  0  0  0  0  0  0  0  0  0  0
   18.3499   19.5361   21.7580 H   0  0  0  0  0  0  0  0  0  0  0  0
   19.0174   17.9607   22.1653 H   0  0  0  0  0  0  0  0  0  0  0  0
   20.4582   19.5872   22.3168 C   0  0  0  0  0  0  0  0  0  0  0  0
   20.6820   20.5260   21.7942 H   0  0  0  0  0  0  0  0  0  0  0  0
   21.3480   18.9523   22.2065 H   0  0  0  0  0  0  0  0  0  0  0  0
   20.2361   19.9149   23.8139 C   0  0  0  0  0  0  0  0  0  0  0  0
   21.0915   20.5060   24.1697 H   0  0  0  0  0  0  0  0  0  0  0  0
   19.3513   20.5574   23.9148 H   0  0  0  0  0  0  0  0  0  0  0  0
   20.0890   18.6571   24.7080 C   0  0  0  0  0  0  0  0  0  0  0  0
   20.9275   17.9773   24.5062 H   0  0  0  0  0  0  0  0  0  0  0  0
   19.1720   18.1127   24.4498 H   0  0  0  0  0  0  0  0  0  0  0  0
   20.0724   18.9935   26.2146 C   0  0  2  0  0  0  0  0  0  0  0  0
   20.9849   19.5489   26.4521 H   0  0  0  0  0  0  0  0  0  0  0  0
   20.0608   17.7039   27.0507 C   0  0  0  0  0  0  0  0  0  0  0  0
   20.0865   17.9359   28.1226 H   0  0  0  0  0  0  0  0  0  0  0  0
   19.1606   17.1092   26.8510 H   0  0  0  0  0  0  0  0  0  0  0  0
   20.9372   17.0841   26.8234 H   0  0  0  0  0  0  0  0  0  0  0  0
   18.9162   19.8783   26.5926 N   0  3  0  0  0  0  0  0  0  0  0  0
   18.9327   20.1099   27.5900 H   0  0  0  0  0  0  0  0  0  0  0  0
   18.0199   19.4242   26.3978 H   0  0  0  0  0  0  0  0  0  0  0  0
   18.9352   20.7598   26.0727 H   0  0  0  0  0  0  0  0  0  0  0  0
  1  2  1  0  0  0  0
  1  3  1  0  0  0  0
  1  4  1  0  0  0  0
  1  5  1  0  0  0  0
  5  6  1  0  0  0  0
  5  7  1  0  0  0  0
  5  8  1  0  0  0  0
  8  9  1  0  0  0  0
  8 10  1  0  0  0  0
  8 11  1  0  0  0  0
 11 12  1  0  0  0  0
 11 13  1  0  0  0  0
 11 14  1  0  0  0  0
 14 15  1  0  0  0  0
 14 16  1  0  0  0  0
 14 17  1  0  0  0  0
 17 18  1  0  0  0  0
 17 19  1  0  0  0  0
 17 20  1  0  0  0  0
 20 21  1  0  0  0  0
 20 22  1  0  0  0  0
 22 23  1  0  0  0  0
 22 24  1  0  0  0  0
 22 25  1  0  0  0  0
 20 26  1  0  0  0  0
 26 27  1  0  0  0  0
 26 28  1  0  0  0  0
 26 29  1  0  0  0  0
M  END
> <VM2 Rank>
28

> <Conf_Id>
849

> <Probability>
1.27

> <Sum Probability>
74.63

> <Delta G>
1.267

> <G>
34.969

> <E>
-2.592

> <-TS>
37.561

> <U+W>
-26.737

> <U>
25.449

> <W>
-52.186

> <W(PB)>
-54.672

> <W(SA)>
2.486

> <Valence>
4.270

> <Coulomb>
19.867

> <VdW>
1.312

> <VdW6>
-9.219

> <VdW12>
10.531

> <Bond>
0.272

> <Angle>
1.393

> <Pdih>
2.605

> <Idih>
0.000

> <Tether>
0.000

$$$$
VeraChem MOL file


 29 28  0  0  0  0  0  0  0  0999 V2000     
   18.9916   18.5542   19.5724 C   0  0  0  0  0  0  0  0  0  0  0  0
   19.0199   17.5107   19.9121 H   0  0  0  0  0  0  0  0  0  0  0  0
   18.0782   19.0189   19.9640 H   0  0  0  0  0  0  0  0  0  0  0  0
   18.9162   18.5490   18.4773 H   0  0  0  0  0  0  0  0  0  0  0  0
   20.2557   19.3199   20.0240 C   0  0  0  0  0  0  0  0  0  0  0  0
   20.1914   20.3662   19.6943 H   0  0  0  0  0  0  0  0  0  0  0  0
   21.1308   18.8907   19.5163 H   0  0  0  0  0  0  0  0  0  0  0  0
   20.4916   19.2659   21.5526 C   0  0  0  0  0  0  0  0  0  0  0  0
   20.5850   18.2170   21.8629 H   0  0  0  0  0  0  0  0  0  0  0  0
   21.4556   19.7439   21.7743 H   0  0  0  0  0  0  0  0  0  0  0  0
   19.3774   19.9677   22.3697 C   0  0  0  0  0  0  0  0  0  0  0  0
   18.4298   19.4239   22.2592 H   0  0  0  0  0  0  0  0  0  0  0  0
   19.2092   20.9710   21.9548 H   0  0  0  0  0  0  0  0  0  0  0  0
   19.7100   20.1097   23.8754 C   0  0  0  0  0  0  0  0  0  0  0  0
   20.6508   20.6652   23.9931 H   0  0  0  0  0  0  0  0  0  0  0  0
   18.9278   20.7249   24.3390 H   0  0  0  0  0  0  0  0  0  0  0  0
   19.8092   18.7514   24.6164 C   0  0  0  0  0  0  0  0  0  0  0  0
   20.6065   18.1490   24.1638 H   0  0  0  0  0  0  0  0  0  0  0  0
   18.8759   18.1878   24.4857 H   0  0  0  0  0  0  0  0  0  0  0  0
   20.1143   18.9080   26.1221 C   0  0  2  0  0  0  0  0  0  0  0  0
   21.0275   19.5018   26.2271 H   0  0  0  0  0  0  0  0  0  0  0  0
   20.3567   17.5325   26.7638 C   0  0  0  0  0  0  0  0  0  0  0  0
   20.6086   17.6386   27.8263 H   0  0  0  0  0  0  0  0  0  0  0  0
   19.4667   16.8955   26.6854 H   0  0  0  0  0  0  0  0  0  0  0  0
   21.1914   17.0153   26.2744 H   0  0  0  0  0  0  0  0  0  0  0  0
   19.0296   19.6468   26.8574 N   0  3  0  0  0  0  0  0  0  0  0  0
   18.8874   20.5839   26.4713 H   0  0  0  0  0  0  0  0  0  0  0  0
   19.2579   19.7559   27.8497 H   0  0  0  0  0  0  0  0  0  0  0  0
   18.1362   19.1506   26.8010 H   0  0  0  0  0  0  0  0  0  0  0  0
  1  2  1  0  0  0  0
  1  3  1  0  0  0  0
  1  4  1  0  0  0  0
  1  5  1  0  0  0  0
  5  6  1  0  0  0  0
  5  7  1  0  0  0  0
  5  8  1  0  0  0  0
  8  9  1  0  0  0  0
  8 10  1  0  0  0  0
  8 11  1  0  0  0  0
 11 12  1  0  0  0  0
 11 13  1  0  0  0  0
 11 14  1  0  0  0  0
 14 15  1  0  0  0  0
 14 16  1  0  0  0  0
 14 17  1  0  0  0  0
 17 18  1  0  0  0  0
 17 19  1  0  0  0  0
 17 20  1  0  0  0  0
 20 21  1  0  0  0  0
 20 22  1  0  0  0  0
 22 23  1  0  0  0  0
 22 24  1  0  0  0  0
 22 25  1  0  0  0  0
 20 26  1  0  0  0  0
 26 27  1  0  0  0  0
 26 28  1  0  0  0  0
 26 29  1  0  0  0  0
M  END
> <VM2 Rank>
29

> <Conf_Id>
1049

> <Probability>
1.22

> <Sum Probability>
75.84

> <Delta G>
1.295

> <G>
34.997

> <E>
-2.602

> <-TS>
37.599

> <U+W>
-26.747

> <U>
25.263

> <W>
-52.010

> <W(PB)>
-54.531

> <W(SA)>
2.521

> <Valence>
4.207

> <Coulomb>
19.737

> <VdW>
1.319

> <VdW6>
-9.273

> <VdW12>
10.591

> <Bond>
0.271

> <Angle>
1.357

> <Pdih>
2.580

> <Idih>
0.000

> <Tether>
0.000

$$$$
VeraChem MOL file


 29 28  0  0  0  0  0  0  0  0999 V2000     
   20.3872   20.7307   20.2741 C   0  0  0  0  0  0  0  0  0  0  0  0
   19.5514   21.4224   20.4417 H   0  0  0  0  0  0  0  0  0  0  0  0
   21.0851   20.8234   21.1154 H   0  0  0  0  0  0  0  0  0  0  0  0
   20.9165   21.0566   19.3694 H   0  0  0  0  0  0  0  0  0  0  0  0
   19.8828   19.2788   20.1116 C   0  0  0  0  0  0  0  0  0  0  0  0
   20.7389   18.6028   19.9779 H   0  0  0  0  0  0  0  0  0  0  0  0
   19.2906   19.2113   19.1882 H   0  0  0  0  0  0  0  0  0  0  0  0
   19.0123   18.7933   21.2957 C   0  0  0  0  0  0  0  0  0  0  0  0
   18.1475   19.4608   21.4128 H   0  0  0  0  0  0  0  0  0  0  0  0
   18.6069   17.8029   21.0466 H   0  0  0  0  0  0  0  0  0  0  0  0
   19.7861   18.7015   22.6325 C   0  0  0  0  0  0  0  0  0  0  0  0
   20.1420   19.6989   22.9186 H   0  0  0  0  0  0  0  0  0  0  0  0
   20.6754   18.0704   22.4979 H   0  0  0  0  0  0  0  0  0  0  0  0
   18.9056   18.1182   23.7636 C   0  0  0  0  0  0  0  0  0  0  0  0
   18.0242   18.7555   23.9150 H   0  0  0  0  0  0  0  0  0  0  0  0
   18.5206   17.1380   23.4501 H   0  0  0  0  0  0  0  0  0  0  0  0
   19.6683   17.9400   25.1014 C   0  0  0  0  0  0  0  0  0  0  0  0
   20.4843   17.2208   24.9495 H   0  0  0  0  0  0  0  0  0  0  0  0
   18.9939   17.4866   25.8400 H   0  0  0  0  0  0  0  0  0  0  0  0
   20.2524   19.2489   25.6788 C   0  0  2  0  0  0  0  0  0  0  0  0
   20.9385   19.6755   24.9412 H   0  0  0  0  0  0  0  0  0  0  0  0
   21.0482   18.9595   26.9612 C   0  0  0  0  0  0  0  0  0  0  0  0
   21.8607   18.2492   26.7635 H   0  0  0  0  0  0  0  0  0  0  0  0
   21.4985   19.8793   27.3545 H   0  0  0  0  0  0  0  0  0  0  0  0
   20.4042   18.5337   27.7408 H   0  0  0  0  0  0  0  0  0  0  0  0
   19.1930   20.2852   25.9351 N   0  3  0  0  0  0  0  0  0  0  0  0
   18.5111   19.9580   26.6247 H   0  0  0  0  0  0  0  0  0  0  0  0
   18.6814   20.5123   25.0780 H   0  0  0  0  0  0  0  0  0  0  0  0
   19.5982   21.1552   26.2923 H   0  0  0  0  0  0  0  0  0  0  0  0
  1  2  1  0  0  0  0
  1  3  1  0  0  0  0
  1  4  1  0  0  0  0
  1  5  1  0  0  0  0
  5  6  1  0  0  0  0
  5  7  1  0  0  0  0
  5  8  1  0  0  0  0
  8  9  1  0  0  0  0
  8 10  1  0  0  0  0
  8 11  1  0  0  0  0
 11 12  1  0  0  0  0
 11 13  1  0  0  0  0
 11 14  1  0  0  0  0
 14 15  1  0  0  0  0
 14 16  1  0  0  0  0
 14 17  1  0  0  0  0
 17 18  1  0  0  0  0
 17 19  1  0  0  0  0
 17 20  1  0  0  0  0
 20 21  1  0  0  0  0
 20 22  1  0  0  0  0
 22 23  1  0  0  0  0
 22 24  1  0  0  0  0
 22 25  1  0  0  0  0
 20 26  1  0  0  0  0
 26 27  1  0  0  0  0
 26 28  1  0  0  0  0
 26 29  1  0  0  0  0
M  END
> <VM2 Rank>
30

> <Conf_Id>
1294

> <Probability>
1.20

> <Sum Probability>
77.05

> <Delta G>
1.301

> <G>
35.003

> <E>
-2.687

> <-TS>
37.690

> <U+W>
-26.832

> <U>
25.375

> <W>
-52.207

> <W(PB)>
-54.719

> <W(SA)>
2.512

> <Valence>
3.961

> <Coulomb>
20.374

> <VdW>
1.041

> <VdW6>
-9.517

> <VdW12>
10.558

> <Bond>
0.254

> <Angle>
1.329

> <Pdih>
2.378

> <Idih>
0.000

> <Tether>
0.000

$$$$
VeraChem MOL file


 29 28  0  0  0  0  0  0  0  0999 V2000     
   21.0682   19.3518   19.7513 C   0  0  0  0  0  0  0  0  0  0  0  0
   21.7269   18.5294   20.0596 H   0  0  0  0  0  0  0  0  0  0  0  0
   20.4904   19.0187   18.8793 H   0  0  0  0  0  0  0  0  0  0  0  0
   21.7016   20.1908   19.4351 H   0  0  0  0  0  0  0  0  0  0  0  0
   20.1361   19.7775   20.9053 C   0  0  0  0  0  0  0  0  0  0  0  0
   19.5108   20.6197   20.5777 H   0  0  0  0  0  0  0  0  0  0  0  0
   20.7481   20.1406   21.7416 H   0  0  0  0  0  0  0  0  0  0  0  0
   19.2358   18.6093   21.3714 C   0  0  0  0  0  0  0  0  0  0  0  0
   18.6903   18.2122   20.5043 H   0  0  0  0  0  0  0  0  0  0  0  0
   19.8590   17.7827   21.7371 H   0  0  0  0  0  0  0  0  0  0  0  0
   18.2009   19.0147   22.4528 C   0  0  0  0  0  0  0  0  0  0  0  0
   17.5932   18.1350   22.7060 H   0  0  0  0  0  0  0  0  0  0  0  0
   17.5040   19.7453   22.0195 H   0  0  0  0  0  0  0  0  0  0  0  0
   18.7935   19.6081   23.7574 C   0  0  0  0  0  0  0  0  0  0  0  0
   19.3051   20.5550   23.5399 H   0  0  0  0  0  0  0  0  0  0  0  0
   17.9567   19.8628   24.4208 H   0  0  0  0  0  0  0  0  0  0  0  0
   19.7625   18.6460   24.4914 C   0  0  0  0  0  0  0  0  0  0  0  0
   20.6101   18.4159   23.8339 H   0  0  0  0  0  0  0  0  0  0  0  0
   19.2559   17.6939   24.6978 H   0  0  0  0  0  0  0  0  0  0  0  0
   20.3153   19.2365   25.8067 C   0  0  2  0  0  0  0  0  0  0  0  0
   20.7809   20.2008   25.5808 H   0  0  0  0  0  0  0  0  0  0  0  0
   21.3888   18.3093   26.3988 C   0  0  0  0  0  0  0  0  0  0  0  0
   21.8109   18.7396   27.3153 H   0  0  0  0  0  0  0  0  0  0  0  0
   20.9714   17.3246   26.6439 H   0  0  0  0  0  0  0  0  0  0  0  0
   22.2132   18.1641   25.6895 H   0  0  0  0  0  0  0  0  0  0  0  0
   19.2349   19.5029   26.8190 N   0  3  0  0  0  0  0  0  0  0  0  0
   19.6182   19.9101   27.6768 H   0  0  0  0  0  0  0  0  0  0  0  0
   18.7476   18.6414   27.0795 H   0  0  0  0  0  0  0  0  0  0  0  0
   18.5351   20.1557   26.4562 H   0  0  0  0  0  0  0  0  0  0  0  0
  1  2  1  0  0  0  0
  1  3  1  0  0  0  0
  1  4  1  0  0  0  0
  1  5  1  0  0  0  0
  5  6  1  0  0  0  0
  5  7  1  0  0  0  0
  5  8  1  0  0  0  0
  8  9  1  0  0  0  0
  8 10  1  0  0  0  0
  8 11  1  0  0  0  0
 11 12  1  0  0  0  0
 11 13  1  0  0  0  0
 11 14  1  0  0  0  0
 14 15  1  0  0  0  0
 14 16  1  0  0  0  0
 14 17  1  0  0  0  0
 17 18  1  0  0  0  0
 17 19  1  0  0  0  0
 17 20  1  0  0  0  0
 20 21  1  0  0  0  0
 20 22  1  0  0  0  0
 22 23  1  0  0  0  0
 22 24  1  0  0  0  0
 22 25  1  0  0  0  0
 20 26  1  0  0  0  0
 26 27  1  0  0  0  0
 26 28  1  0  0  0  0
 26 29  1  0  0  0  0
M  END
> <VM2 Rank>
31

> <Conf_Id>
564

> <Probability>
1.17

> <Sum Probability>
78.22

> <Delta G>
1.316

> <G>
35.018

> <E>
-2.811

> <-TS>
37.828

> <U+W>
-26.955

> <U>
25.306

> <W>
-52.261

> <W(PB)>
-54.752

> <W(SA)>
2.492

> <Valence>
4.184

> <Coulomb>
19.997

> <VdW>
1.124

> <VdW6>
-9.688

> <VdW12>
10.812

> <Bond>
0.280

> <Angle>
1.609

> <Pdih>
2.295

> <Idih>
0.000

> <Tether>
0.000

$$$$
VeraChem MOL file


 29 28  0  0  0  0  0  0  0  0999 V2000     
   19.5533   19.8113   19.2267 C   0  0  0  0  0  0  0  0  0  0  0  0
   18.5973   20.2257   19.5696 H   0  0  0  0  0  0  0  0  0  0  0  0
   20.3045   20.6113   19.2512 H   0  0  0  0  0  0  0  0  0  0  0  0
   19.4228   19.5056   18.1805 H   0  0  0  0  0  0  0  0  0  0  0  0
   19.9947   18.6077   20.0900 C   0  0  0  0  0  0  0  0  0  0  0  0
   20.8824   18.1513   19.6300 H   0  0  0  0  0  0  0  0  0  0  0  0
   19.2119   17.8365   20.0782 H   0  0  0  0  0  0  0  0  0  0  0  0
   20.3346   18.9867   21.5519 C   0  0  0  0  0  0  0  0  0  0  0  0
   20.7658   18.1025   22.0379 H   0  0  0  0  0  0  0  0  0  0  0  0
   21.1176   19.7573   21.5579 H   0  0  0  0  0  0  0  0  0  0  0  0
   19.1084   19.4796   22.3620 C   0  0  0  0  0  0  0  0  0  0  0  0
   18.3272   18.7071   22.3607 H   0  0  0  0  0  0  0  0  0  0  0  0
   18.6750   20.3576   21.8662 H   0  0  0  0  0  0  0  0  0  0  0  0
   19.4452   19.8754   23.8211 C   0  0  0  0  0  0  0  0  0  0  0  0
   20.2407   20.6335   23.8218 H   0  0  0  0  0  0  0  0  0  0  0  0
   18.5586   20.3577   24.2530 H   0  0  0  0  0  0  0  0  0  0  0  0
   19.8641   18.6758   24.7099 C   0  0  0  0  0  0  0  0  0  0  0  0
   20.7660   18.2114   24.2931 H   0  0  0  0  0  0  0  0  0  0  0  0
   19.0786   17.9087   24.6934 H   0  0  0  0  0  0  0  0  0  0  0  0
   20.1602   19.0832   26.1698 C   0  0  2  0  0  0  0  0  0  0  0  0
   20.9177   19.8729   26.1586 H   0  0  0  0  0  0  0  0  0  0  0  0
   20.7217   17.8870   26.9549 C   0  0  0  0  0  0  0  0  0  0  0  0
   20.9671   18.1784   27.9837 H   0  0  0  0  0  0  0  0  0  0  0  0
   19.9973   17.0639   26.9961 H   0  0  0  0  0  0  0  0  0  0  0  0
   21.6405   17.5105   26.4881 H   0  0  0  0  0  0  0  0  0  0  0  0
   18.9537   19.6494   26.8678 N   0  3  0  0  0  0  0  0  0  0  0  0
   19.1742   19.9292   27.8278 H   0  0  0  0  0  0  0  0  0  0  0  0
   18.1944   18.9647   26.9144 H   0  0  0  0  0  0  0  0  0  0  0  0
   18.5947   20.4761   26.3828 H   0  0  0  0  0  0  0  0  0  0  0  0
  1  2  1  0  0  0  0
  1  3  1  0  0  0  0
  1  4  1  0  0  0  0
  1  5  1  0  0  0  0
  5  6  1  0  0  0  0
  5  7  1  0  0  0  0
  5  8  1  0  0  0  0
  8  9  1  0  0  0  0
  8 10  1  0  0  0  0
  8 11  1  0  0  0  0
 11 12  1  0  0  0  0
 11 13  1  0  0  0  0
 11 14  1  0  0  0  0
 14 15  1  0  0  0  0
 14 16  1  0  0  0  0
 14 17  1  0  0  0  0
 17 18  1  0  0  0  0
 17 19  1  0  0  0  0
 17 20  1  0  0  0  0
 20 21  1  0  0  0  0
 20 22  1  0  0  0  0
 22 23  1  0  0  0  0
 22 24  1  0  0  0  0
 22 25  1  0  0  0  0
 20 26  1  0  0  0  0
 26 27  1  0  0  0  0
 26 28  1  0  0  0  0
 26 29  1  0  0  0  0
M  END
> <VM2 Rank>
32

> <Conf_Id>
850

> <Probability>
1.14

> <Sum Probability>
79.36

> <Delta G>
1.333

> <G>
35.035

> <E>
-2.460

> <-TS>
37.495

> <U+W>
-26.604

> <U>
25.451

> <W>
-52.054

> <W(PB)>
-54.545

> <W(SA)>
2.490

> <Valence>
4.319

> <Coulomb>
19.732

> <VdW>
1.400

> <VdW6>
-9.173

> <VdW12>
10.573

> <Bond>
0.281

> <Angle>
1.459

> <Pdih>
2.580

> <Idih>
0.000

> <Tether>
0.000

$$$$
VeraChem MOL file


 29 28  0  0  0  0  0  0  0  0999 V2000     
   20.2678   20.7449   20.2635 C   0  0  0  0  0  0  0  0  0  0  0  0
   19.9268   21.2865   21.1545 H   0  0  0  0  0  0  0  0  0  0  0  0
   21.3566   20.6224   20.3303 H   0  0  0  0  0  0  0  0  0  0  0  0
   20.0540   21.3769   19.3918 H   0  0  0  0  0  0  0  0  0  0  0  0
   19.5620   19.3769   20.1253 C   0  0  0  0  0  0  0  0  0  0  0  0
   19.8405   18.9310   19.1603 H   0  0  0  0  0  0  0  0  0  0  0  0
   18.4734   19.5241   20.0933 H   0  0  0  0  0  0  0  0  0  0  0  0
   19.9226   18.3814   21.2542 C   0  0  0  0  0  0  0  0  0  0  0  0
   19.4713   17.4080   21.0175 H   0  0  0  0  0  0  0  0  0  0  0  0
   21.0097   18.2227   21.2698 H   0  0  0  0  0  0  0  0  0  0  0  0
   19.4415   18.8352   22.6531 C   0  0  0  0  0  0  0  0  0  0  0  0
   18.3620   19.0372   22.6216 H   0  0  0  0  0  0  0  0  0  0  0  0
   19.9365   19.7765   22.9226 H   0  0  0  0  0  0  0  0  0  0  0  0
   19.7363   17.7671   23.7333 C   0  0  0  0  0  0  0  0  0  0  0  0
   19.2779   16.8150   23.4325 H   0  0  0  0  0  0  0  0  0  0  0  0
   20.8167   17.5781   23.7849 H   0  0  0  0  0  0  0  0  0  0  0  0
   19.1949   18.1497   25.1351 C   0  0  0  0  0  0  0  0  0  0  0  0
   19.4281   17.3411   25.8405 H   0  0  0  0  0  0  0  0  0  0  0  0
   18.0994   18.1999   25.0812 H   0  0  0  0  0  0  0  0  0  0  0  0
   19.7246   19.4886   25.7008 C   0  0  2  0  0  0  0  0  0  0  0  0
   19.4773   20.2849   24.9927 H   0  0  0  0  0  0  0  0  0  0  0  0
   21.2506   19.4698   25.8992 C   0  0  0  0  0  0  0  0  0  0  0  0
   21.5546   18.6489   26.5605 H   0  0  0  0  0  0  0  0  0  0  0  0
   21.7744   19.3533   24.9432 H   0  0  0  0  0  0  0  0  0  0  0  0
   21.5942   20.4114   26.3450 H   0  0  0  0  0  0  0  0  0  0  0  0
   19.0357   19.8423   26.9894 N   0  3  0  0  0  0  0  0  0  0  0  0
   18.0203   19.9020   26.8702 H   0  0  0  0  0  0  0  0  0  0  0  0
   19.3542   20.7472   27.3477 H   0  0  0  0  0  0  0  0  0  0  0  0
   19.2197   19.1446   27.7154 H   0  0  0  0  0  0  0  0  0  0  0  0
  1  2  1  0  0  0  0
  1  3  1  0  0  0  0
  1  4  1  0  0  0  0
  1  5  1  0  0  0  0
  5  6  1  0  0  0  0
  5  7  1  0  0  0  0
  5  8  1  0  0  0  0
  8  9  1  0  0  0  0
  8 10  1  0  0  0  0
  8 11  1  0  0  0  0
 11 12  1  0  0  0  0
 11 13  1  0  0  0  0
 11 14  1  0  0  0  0
 14 15  1  0  0  0  0
 14 16  1  0  0  0  0
 14 17  1  0  0  0  0
 17 18  1  0  0  0  0
 17 19  1  0  0  0  0
 17 20  1  0  0  0  0
 20 21  1  0  0  0  0
 20 22  1  0  0  0  0
 22 23  1  0  0  0  0
 22 24  1  0  0  0  0
 22 25  1  0  0  0  0
 20 26  1  0  0  0  0
 26 27  1  0  0  0  0
 26 28  1  0  0  0  0
 26 29  1  0  0  0  0
M  END
> <VM2 Rank>
33

> <Conf_Id>
19

> <Probability>
0.97

> <Sum Probability>
80.33

> <Delta G>
1.431

> <G>
35.133

> <E>
-2.657

> <-TS>
37.789

> <U+W>
-26.802

> <U>
25.521

> <W>
-52.322

> <W(PB)>
-54.805

> <W(SA)>
2.483

> <Valence>
4.455

> <Coulomb>
19.959

> <VdW>
1.107

> <VdW6>
-9.753

> <VdW12>
10.860

> <Bond>
0.265

> <Angle>
1.659

> <Pdih>
2.531

> <Idih>
0.000

> <Tether>
0.000

$$$$
VeraChem MOL file


 29 28  0  0  0  0  0  0  0  0999 V2000     
   19.3788   19.6728   19.0513 C   0  0  0  0  0  0  0  0  0  0  0  0
   18.5396   20.3763   19.1293 H   0  0  0  0  0  0  0  0  0  0  0  0
   20.2597   20.2283   18.7041 H   0  0  0  0  0  0  0  0  0  0  0  0
   19.1255   18.9295   18.2843 H   0  0  0  0  0  0  0  0  0  0  0  0
   19.6537   18.9860   20.4059 C   0  0  0  0  0  0  0  0  0  0  0  0
   20.4778   18.2684   20.2895 H   0  0  0  0  0  0  0  0  0  0  0  0
   18.7667   18.4088   20.6979 H   0  0  0  0  0  0  0  0  0  0  0  0
   20.0087   20.0156   21.5047 C   0  0  0  0  0  0  0  0  0  0  0  0
   20.8444   20.6363   21.1532 H   0  0  0  0  0  0  0  0  0  0  0  0
   19.1622   20.6987   21.6600 H   0  0  0  0  0  0  0  0  0  0  0  0
   20.4118   19.3718   22.8541 C   0  0  0  0  0  0  0  0  0  0  0  0
   20.7760   20.1699   23.5141 H   0  0  0  0  0  0  0  0  0  0  0  0
   21.2594   18.6906   22.6968 H   0  0  0  0  0  0  0  0  0  0  0  0
   19.2524   18.6125   23.5481 C   0  0  0  0  0  0  0  0  0  0  0  0
   18.3929   19.2834   23.6779 H   0  0  0  0  0  0  0  0  0  0  0  0
   18.9068   17.7977   22.8990 H   0  0  0  0  0  0  0  0  0  0  0  0
   19.6563   17.9964   24.9124 C   0  0  0  0  0  0  0  0  0  0  0  0
   20.4567   17.2633   24.7454 H   0  0  0  0  0  0  0  0  0  0  0  0
   18.8043   17.4328   25.3153 H   0  0  0  0  0  0  0  0  0  0  0  0
   20.1282   19.0262   25.9634 C   0  0  2  0  0  0  0  0  0  0  0  0
   20.9930   19.5606   25.5597 H   0  0  0  0  0  0  0  0  0  0  0  0
   20.5665   18.3125   27.2519 C   0  0  0  0  0  0  0  0  0  0  0  0
   21.3740   17.5988   27.0464 H   0  0  0  0  0  0  0  0  0  0  0  0
   20.9401   19.0350   27.9880 H   0  0  0  0  0  0  0  0  0  0  0  0
   19.7319   17.7630   27.7053 H   0  0  0  0  0  0  0  0  0  0  0  0
   19.0797   20.0622   26.2622 N   0  3  0  0  0  0  0  0  0  0  0  0
   19.4163   20.7516   26.9404 H   0  0  0  0  0  0  0  0  0  0  0  0
   18.2346   19.6355   26.6513 H   0  0  0  0  0  0  0  0  0  0  0  0
   18.8081   20.5697   25.4156 H   0  0  0  0  0  0  0  0  0  0  0  0
  1  2  1  0  0  0  0
  1  3  1  0  0  0  0
  1  4  1  0  0  0  0
  1  5  1  0  0  0  0
  5  6  1  0  0  0  0
  5  7  1  0  0  0  0
  5  8  1  0  0  0  0
  8  9  1  0  0  0  0
  8 10  1  0  0  0  0
  8 11  1  0  0  0  0
 11 12  1  0  0  0  0
 11 13  1  0  0  0  0
 11 14  1  0  0  0  0
 14 15  1  0  0  0  0
 14 16  1  0  0  0  0
 14 17  1  0  0  0  0
 17 18  1  0  0  0  0
 17 19  1  0  0  0  0
 17 20  1  0  0  0  0
 20 21  1  0  0  0  0
 20 22  1  0  0  0  0
 22 23  1  0  0  0  0
 22 24  1  0  0  0  0
 22 25  1  0  0  0  0
 20 26  1  0  0  0  0
 26 27  1  0  0  0  0
 26 28  1  0  0  0  0
 26 29  1  0  0  0  0
M  END
> <VM2 Rank>
34

> <Conf_Id>
907

> <Probability>
0.96

> <Sum Probability>
81.29

> <Delta G>
1.435

> <G>
35.137

> <E>
-2.510

> <-TS>
37.647

> <U+W>
-26.655

> <U>
25.432

> <W>
-52.087

> <W(PB)>
-54.610

> <W(SA)>
2.523

> <Valence>
4.057

> <Coulomb>
20.266

> <VdW>
1.108

> <VdW6>
-9.451

> <VdW12>
10.559

> <Bond>
0.265

> <Angle>
1.407

> <Pdih>
2.385

> <Idih>
0.000

> <Tether>
0.000

$$$$
VeraChem MOL file


 29 28  0  0  0  0  0  0  0  0999 V2000     
   20.4608   19.1082   19.2237 C   0  0  0  0  0  0  0  0  0  0  0  0
   19.5362   18.7062   18.7892 H   0  0  0  0  0  0  0  0  0  0  0  0
   20.5765   20.1451   18.8822 H   0  0  0  0  0  0  0  0  0  0  0  0
   21.3017   18.5263   18.8245 H   0  0  0  0  0  0  0  0  0  0  0  0
   20.4280   19.0315   20.7647 C   0  0  0  0  0  0  0  0  0  0  0  0
   21.3762   19.4128   21.1686 H   0  0  0  0  0  0  0  0  0  0  0  0
   20.3529   17.9786   21.0672 H   0  0  0  0  0  0  0  0  0  0  0  0
   19.2473   19.8414   21.3504 C   0  0  0  0  0  0  0  0  0  0  0  0
   19.2987   20.8717   20.9719 H   0  0  0  0  0  0  0  0  0  0  0  0
   18.2968   19.4269   20.9872 H   0  0  0  0  0  0  0  0  0  0  0  0
   19.2368   19.8874   22.8979 C   0  0  0  0  0  0  0  0  0  0  0  0
   18.4421   20.5742   23.2204 H   0  0  0  0  0  0  0  0  0  0  0  0
   20.1825   20.3196   23.2514 H   0  0  0  0  0  0  0  0  0  0  0  0
   19.0039   18.5030   23.5538 C   0  0  0  0  0  0  0  0  0  0  0  0
   18.1058   18.0447   23.1173 H   0  0  0  0  0  0  0  0  0  0  0  0
   19.8343   17.8257   23.3188 H   0  0  0  0  0  0  0  0  0  0  0  0
   18.8169   18.5836   25.0908 C   0  0  0  0  0  0  0  0  0  0  0  0
   18.6475   17.5723   25.4838 H   0  0  0  0  0  0  0  0  0  0  0  0
   17.8989   19.1488   25.2993 H   0  0  0  0  0  0  0  0  0  0  0  0
   19.9883   19.2405   25.8584 C   0  0  2  0  0  0  0  0  0  0  0  0
   20.1407   20.2477   25.4596 H   0  0  0  0  0  0  0  0  0  0  0  0
   21.2996   18.4505   25.7000 C   0  0  0  0  0  0  0  0  0  0  0  0
   21.1805   17.4127   26.0353 H   0  0  0  0  0  0  0  0  0  0  0  0
   21.6329   18.4383   24.6557 H   0  0  0  0  0  0  0  0  0  0  0  0
   22.1014   18.9095   26.2913 H   0  0  0  0  0  0  0  0  0  0  0  0
   19.6544   19.4100   27.3144 N   0  3  0  0  0  0  0  0  0  0  0  0
   18.8068   19.9699   27.4442 H   0  0  0  0  0  0  0  0  0  0  0  0
   20.4108   19.8806   27.8194 H   0  0  0  0  0  0  0  0  0  0  0  0
   19.4991   18.5066   27.7699 H   0  0  0  0  0  0  0  0  0  0  0  0
  1  2  1  0  0  0  0
  1  3  1  0  0  0  0
  1  4  1  0  0  0  0
  1  5  1  0  0  0  0
  5  6  1  0  0  0  0
  5  7  1  0  0  0  0
  5  8  1  0  0  0  0
  8  9  1  0  0  0  0
  8 10  1  0  0  0  0
  8 11  1  0  0  0  0
 11 12  1  0  0  0  0
 11 13  1  0  0  0  0
 11 14  1  0  0  0  0
 14 15  1  0  0  0  0
 14 16  1  0  0  0  0
 14 17  1  0  0  0  0
 17 18  1  0  0  0  0
 17 19  1  0  0  0  0
 17 20  1  0  0  0  0
 20 21  1  0  0  0  0
 20 22  1  0  0  0  0
 22 23  1  0  0  0  0
 22 24  1  0  0  0  0
 22 25  1  0  0  0  0
 20 26  1  0  0  0  0
 26 27  1  0  0  0  0
 26 28  1  0  0  0  0
 26 29  1  0  0  0  0
M  END
> <VM2 Rank>
35

> <Conf_Id>
232

> <Probability>
0.93

> <Sum Probability>
82.22

> <Delta G>
1.456

> <G>
35.158

> <E>
-2.630

> <-TS>
37.788

> <U+W>
-26.774

> <U>
25.505

> <W>
-52.279

> <W(PB)>
-54.762

> <W(SA)>
2.483

> <Valence>
4.470

> <Coulomb>
19.979

> <VdW>
1.055

> <VdW6>
-9.825

> <VdW12>
10.880

> <Bond>
0.267

> <Angle>
1.632

> <Pdih>
2.571

> <Idih>
0.000

> <Tether>
0.000

$$$$
VeraChem MOL file


 29 28  0  0  0  0  0  0  0  0999 V2000     
   19.1566   20.1000   19.3407 C   0  0  0  0  0  0  0  0  0  0  0  0
   20.0696   20.5584   18.9388 H   0  0  0  0  0  0  0  0  0  0  0  0
   19.0087   19.1351   18.8384 H   0  0  0  0  0  0  0  0  0  0  0  0
   18.3108   20.7492   19.0796 H   0  0  0  0  0  0  0  0  0  0  0  0
   19.2529   19.9194   20.8704 C   0  0  0  0  0  0  0  0  0  0  0  0
   18.3085   19.4976   21.2390 H   0  0  0  0  0  0  0  0  0  0  0  0
   19.3709   20.9030   21.3461 H   0  0  0  0  0  0  0  0  0  0  0  0
   20.4365   19.0038   21.2624 C   0  0  0  0  0  0  0  0  0  0  0  0
   20.2923   18.0051   20.8276 H   0  0  0  0  0  0  0  0  0  0  0  0
   21.3587   19.4029   20.8180 H   0  0  0  0  0  0  0  0  0  0  0  0
   20.6428   18.8798   22.7917 C   0  0  0  0  0  0  0  0  0  0  0  0
   20.8064   19.8797   23.2152 H   0  0  0  0  0  0  0  0  0  0  0  0
   21.5660   18.3122   22.9728 H   0  0  0  0  0  0  0  0  0  0  0  0
   19.4681   18.1755   23.5166 C   0  0  0  0  0  0  0  0  0  0  0  0
   18.5525   18.7733   23.4267 H   0  0  0  0  0  0  0  0  0  0  0  0
   19.2587   17.2197   23.0168 H   0  0  0  0  0  0  0  0  0  0  0  0
   19.7599   17.8943   25.0128 C   0  0  0  0  0  0  0  0  0  0  0  0
   20.6116   17.2046   25.0831 H   0  0  0  0  0  0  0  0  0  0  0  0
   18.9023   17.3679   25.4524 H   0  0  0  0  0  0  0  0  0  0  0  0
   20.0664   19.1588   25.8462 C   0  0  2  0  0  0  0  0  0  0  0  0
   20.9339   19.6597   25.4063 H   0  0  0  0  0  0  0  0  0  0  0  0
   20.4174   18.7745   27.2921 C   0  0  0  0  0  0  0  0  0  0  0  0
   19.5760   18.2713   27.7848 H   0  0  0  0  0  0  0  0  0  0  0  0
   21.2815   18.0989   27.3168 H   0  0  0  0  0  0  0  0  0  0  0  0
   20.6743   19.6650   27.8790 H   0  0  0  0  0  0  0  0  0  0  0  0
   18.9354   20.1499   25.8210 N   0  3  0  0  0  0  0  0  0  0  0  0
   18.0831   19.7525   26.2249 H   0  0  0  0  0  0  0  0  0  0  0  0
   18.7181   20.4402   24.8638 H   0  0  0  0  0  0  0  0  0  0  0  0
   19.1643   20.9932   26.3550 H   0  0  0  0  0  0  0  0  0  0  0  0
  1  2  1  0  0  0  0
  1  3  1  0  0  0  0
  1  4  1  0  0  0  0
  1  5  1  0  0  0  0
  5  6  1  0  0  0  0
  5  7  1  0  0  0  0
  5  8  1  0  0  0  0
  8  9  1  0  0  0  0
  8 10  1  0  0  0  0
  8 11  1  0  0  0  0
 11 12  1  0  0  0  0
 11 13  1  0  0  0  0
 11 14  1  0  0  0  0
 14 15  1  0  0  0  0
 14 16  1  0  0  0  0
 14 17  1  0  0  0  0
 17 18  1  0  0  0  0
 17 19  1  0  0  0  0
 17 20  1  0  0  0  0
 20 21  1  0  0  0  0
 20 22  1  0  0  0  0
 22 23  1  0  0  0  0
 22 24  1  0  0  0  0
 22 25  1  0  0  0  0
 20 26  1  0  0  0  0
 26 27  1  0  0  0  0
 26 28  1  0  0  0  0
 26 29  1  0  0  0  0
M  END
> <VM2 Rank>
36

> <Conf_Id>
328

> <Probability>
0.92

> <Sum Probability>
83.13

> <Delta G>
1.463

> <G>
35.165

> <E>
-2.528

> <-TS>
37.693

> <U+W>
-26.673

> <U>
25.640

> <W>
-52.313

> <W(PB)>
-54.801

> <W(SA)>
2.488

> <Valence>
3.984

> <Coulomb>
20.666

> <VdW>
0.990

> <VdW6>
-9.569

> <VdW12>
10.559

> <Bond>
0.256

> <Angle>
1.314

> <Pdih>
2.414

> <Idih>
0.000

> <Tether>
0.000

$$$$
VeraChem MOL file


 29 28  0  0  0  0  0  0  0  0999 V2000     
   18.2673   19.0781   19.9819 C   0  0  0  0  0  0  0  0  0  0  0  0
   18.8121   18.9132   19.0431 H   0  0  0  0  0  0  0  0  0  0  0  0
   17.8656   18.1134   20.3183 H   0  0  0  0  0  0  0  0  0  0  0  0
   17.4186   19.7403   19.7669 H   0  0  0  0  0  0  0  0  0  0  0  0
   19.1856   19.7004   21.0547 C   0  0  0  0  0  0  0  0  0  0  0  0
   18.5968   19.8866   21.9626 H   0  0  0  0  0  0  0  0  0  0  0  0
   19.5481   20.6765   20.7033 H   0  0  0  0  0  0  0  0  0  0  0  0
   20.3880   18.7826   21.3778 C   0  0  0  0  0  0  0  0  0  0  0  0
   20.0274   17.8216   21.7675 H   0  0  0  0  0  0  0  0  0  0  0  0
   20.9186   18.5486   20.4445 H   0  0  0  0  0  0  0  0  0  0  0  0
   21.4011   19.4114   22.3692 C   0  0  0  0  0  0  0  0  0  0  0  0
   21.8406   20.3070   21.9088 H   0  0  0  0  0  0  0  0  0  0  0  0
   22.2338   18.7096   22.5143 H   0  0  0  0  0  0  0  0  0  0  0  0
   20.8214   19.7971   23.7546 C   0  0  0  0  0  0  0  0  0  0  0  0
   21.6317   20.2256   24.3606 H   0  0  0  0  0  0  0  0  0  0  0  0
   20.0789   20.5959   23.6331 H   0  0  0  0  0  0  0  0  0  0  0  0
   20.2014   18.5991   24.5179 C   0  0  0  0  0  0  0  0  0  0  0  0
   20.9310   17.7788   24.5437 H   0  0  0  0  0  0  0  0  0  0  0  0
   19.3221   18.2225   23.9799 H   0  0  0  0  0  0  0  0  0  0  0  0
   19.7990   18.9545   25.9652 C   0  0  2  0  0  0  0  0  0  0  0  0
   20.6821   19.3441   26.4810 H   0  0  0  0  0  0  0  0  0  0  0  0
   19.3193   17.6988   26.7104 C   0  0  0  0  0  0  0  0  0  0  0  0
   20.1034   16.9316   26.7261 H   0  0  0  0  0  0  0  0  0  0  0  0
   19.0667   17.9376   27.7509 H   0  0  0  0  0  0  0  0  0  0  0  0
   18.4301   17.2689   26.2325 H   0  0  0  0  0  0  0  0  0  0  0  0
   18.7528   20.0339   26.0222 N   0  3  0  0  0  0  0  0  0  0  0  0
   19.0760   20.8913   25.5662 H   0  0  0  0  0  0  0  0  0  0  0  0
   18.5140   20.2721   26.9891 H   0  0  0  0  0  0  0  0  0  0  0  0
   17.8899   19.7416   25.5561 H   0  0  0  0  0  0  0  0  0  0  0  0
  1  2  1  0  0  0  0
  1  3  1  0  0  0  0
  1  4  1  0  0  0  0
  1  5  1  0  0  0  0
  5  6  1  0  0  0  0
  5  7  1  0  0  0  0
  5  8  1  0  0  0  0
  8  9  1  0  0  0  0
  8 10  1  0  0  0  0
  8 11  1  0  0  0  0
 11 12  1  0  0  0  0
 11 13  1  0  0  0  0
 11 14  1  0  0  0  0
 14 15  1  0  0  0  0
 14 16  1  0  0  0  0
 14 17  1  0  0  0  0
 17 18  1  0  0  0  0
 17 19  1  0  0  0  0
 17 20  1  0  0  0  0
 20 21  1  0  0  0  0
 20 22  1  0  0  0  0
 22 23  1  0  0  0  0
 22 24  1  0  0  0  0
 22 25  1  0  0  0  0
 20 26  1  0  0  0  0
 26 27  1  0  0  0  0
 26 28  1  0  0  0  0
 26 29  1  0  0  0  0
M  END
> <VM2 Rank>
37

> <Conf_Id>
571

> <Probability>
0.89

> <Sum Probability>
84.02

> <Delta G>
1.483

> <G>
35.185

> <E>
-2.661

> <-TS>
37.846

> <U+W>
-26.806

> <U>
25.620

> <W>
-52.426

> <W(PB)>
-54.911

> <W(SA)>
2.485

> <Valence>
4.137

> <Coulomb>
20.478

> <VdW>
1.005

> <VdW6>
-9.764

> <VdW12>
10.769

> <Bond>
0.272

> <Angle>
1.510

> <Pdih>
2.355

> <Idih>
0.000

> <Tether>
0.000

$$$$
VeraChem MOL file


 29 28  0  0  0  0  0  0  0  0999 V2000     
   19.4180   20.4424   19.8566 C   0  0  0  0  0  0  0  0  0  0  0  0
   19.1268   21.0827   20.6985 H   0  0  0  0  0  0  0  0  0  0  0  0
   19.7726   21.0981   19.0509 H   0  0  0  0  0  0  0  0  0  0  0  0
   18.5227   19.9202   19.4951 H   0  0  0  0  0  0  0  0  0  0  0  0
   20.5210   19.4387   20.2618 C   0  0  0  0  0  0  0  0  0  0  0  0
   21.3933   19.9842   20.6481 H   0  0  0  0  0  0  0  0  0  0  0  0
   20.8639   18.9075   19.3629 H   0  0  0  0  0  0  0  0  0  0  0  0
   20.0512   18.3967   21.3053 C   0  0  0  0  0  0  0  0  0  0  0  0
   19.1941   17.8378   20.9050 H   0  0  0  0  0  0  0  0  0  0  0  0
   20.8565   17.6639   21.4531 H   0  0  0  0  0  0  0  0  0  0  0  0
   19.6771   19.0186   22.6718 C   0  0  0  0  0  0  0  0  0  0  0  0
   18.8220   19.6966   22.5517 H   0  0  0  0  0  0  0  0  0  0  0  0
   20.5188   19.6240   23.0334 H   0  0  0  0  0  0  0  0  0  0  0  0
   19.3203   17.9329   23.7151 C   0  0  0  0  0  0  0  0  0  0  0  0
   18.5170   17.2997   23.3138 H   0  0  0  0  0  0  0  0  0  0  0  0
   20.1798   17.2673   23.8699 H   0  0  0  0  0  0  0  0  0  0  0  0
   18.8507   18.5198   25.0713 C   0  0  0  0  0  0  0  0  0  0  0  0
   18.6033   17.6939   25.7514 H   0  0  0  0  0  0  0  0  0  0  0  0
   17.9141   19.0683   24.9055 H   0  0  0  0  0  0  0  0  0  0  0  0
   19.8620   19.4646   25.7625 C   0  0  2  0  0  0  0  0  0  0  0  0
   20.0939   20.2842   25.0761 H   0  0  0  0  0  0  0  0  0  0  0  0
   21.1737   18.7446   26.1225 C   0  0  0  0  0  0  0  0  0  0  0  0
   21.8540   19.4225   26.6524 H   0  0  0  0  0  0  0  0  0  0  0  0
   20.9860   17.8773   26.7677 H   0  0  0  0  0  0  0  0  0  0  0  0
   21.6964   18.3976   25.2235 H   0  0  0  0  0  0  0  0  0  0  0  0
   19.2620   20.0978   26.9869 N   0  3  0  0  0  0  0  0  0  0  0  0
   19.9137   20.7545   27.4260 H   0  0  0  0  0  0  0  0  0  0  0  0
   19.0173   19.3948   27.6896 H   0  0  0  0  0  0  0  0  0  0  0  0
   18.4093   20.6188   26.7628 H   0  0  0  0  0  0  0  0  0  0  0  0
  1  2  1  0  0  0  0
  1  3  1  0  0  0  0
  1  4  1  0  0  0  0
  1  5  1  0  0  0  0
  5  6  1  0  0  0  0
  5  7  1  0  0  0  0
  5  8  1  0  0  0  0
  8  9  1  0  0  0  0
  8 10  1  0  0  0  0
  8 11  1  0  0  0  0
 11 12  1  0  0  0  0
 11 13  1  0  0  0  0
 11 14  1  0  0  0  0
 14 15  1  0  0  0  0
 14 16  1  0  0  0  0
 14 17  1  0  0  0  0
 17 18  1  0  0  0  0
 17 19  1  0  0  0  0
 17 20  1  0  0  0  0
 20 21  1  0  0  0  0
 20 22  1  0  0  0  0
 22 23  1  0  0  0  0
 22 24  1  0  0  0  0
 22 25  1  0  0  0  0
 20 26  1  0  0  0  0
 26 27  1  0  0  0  0
 26 28  1  0  0  0  0
 26 29  1  0  0  0  0
M  END
> <VM2 Rank>
38

> <Conf_Id>
1353

> <Probability>
0.88

> <Sum Probability>
84.90

> <Delta G>
1.484

> <G>
35.186

> <E>
-2.602

> <-TS>
37.789

> <U+W>
-26.747

> <U>
25.489

> <W>
-52.236

> <W(PB)>
-54.720

> <W(SA)>
2.485

> <Valence>
4.461

> <Coulomb>
19.910

> <VdW>
1.118

> <VdW6>
-9.713

> <VdW12>
10.831

> <Bond>
0.263

> <Angle>
1.656

> <Pdih>
2.542

> <Idih>
0.000

> <Tether>
0.000

$$$$
VeraChem MOL file


 29 28  0  0  0  0  0  0  0  0999 V2000     
   19.4025   20.5553   19.7646 C   0  0  0  0  0  0  0  0  0  0  0  0
   18.5450   20.0052   19.3555 H   0  0  0  0  0  0  0  0  0  0  0  0
   19.0186   21.4022   20.3483 H   0  0  0  0  0  0  0  0  0  0  0  0
   19.9768   20.9601   18.9211 H   0  0  0  0  0  0  0  0  0  0  0  0
   20.2863   19.6369   20.6348 C   0  0  0  0  0  0  0  0  0  0  0  0
   21.1519   20.2056   21.0024 H   0  0  0  0  0  0  0  0  0  0  0  0
   20.6829   18.8200   20.0159 H   0  0  0  0  0  0  0  0  0  0  0  0
   19.5009   19.0528   21.8296 C   0  0  0  0  0  0  0  0  0  0  0  0
   19.1019   19.8784   22.4333 H   0  0  0  0  0  0  0  0  0  0  0  0
   18.6384   18.4828   21.4577 H   0  0  0  0  0  0  0  0  0  0  0  0
   20.3874   18.1363   22.7062 C   0  0  0  0  0  0  0  0  0  0  0  0
   21.2306   18.7125   23.1098 H   0  0  0  0  0  0  0  0  0  0  0  0
   20.8305   17.3554   22.0727 H   0  0  0  0  0  0  0  0  0  0  0  0
   19.6145   17.4478   23.8605 C   0  0  0  0  0  0  0  0  0  0  0  0
   18.8433   16.7921   23.4333 H   0  0  0  0  0  0  0  0  0  0  0  0
   20.3006   16.7817   24.4004 H   0  0  0  0  0  0  0  0  0  0  0  0
   18.9403   18.4197   24.8660 C   0  0  0  0  0  0  0  0  0  0  0  0
   18.4829   17.8343   25.6746 H   0  0  0  0  0  0  0  0  0  0  0  0
   18.1098   18.9298   24.3617 H   0  0  0  0  0  0  0  0  0  0  0  0
   19.8835   19.4825   25.4762 C   0  0  2  0  0  0  0  0  0  0  0  0
   20.3422   20.0461   24.6582 H   0  0  0  0  0  0  0  0  0  0  0  0
   21.0032   18.8440   26.3171 C   0  0  0  0  0  0  0  0  0  0  0  0
   20.5897   18.2301   27.1269 H   0  0  0  0  0  0  0  0  0  0  0  0
   21.6502   18.2087   25.7011 H   0  0  0  0  0  0  0  0  0  0  0  0
   21.6382   19.6174   26.7663 H   0  0  0  0  0  0  0  0  0  0  0  0
   19.1175   20.4806   26.2991 N   0  3  0  0  0  0  0  0  0  0  0  0
   18.3933   20.9488   25.7468 H   0  0  0  0  0  0  0  0  0  0  0  0
   19.7335   21.2080   26.6734 H   0  0  0  0  0  0  0  0  0  0  0  0
   18.6558   20.0324   27.0952 H   0  0  0  0  0  0  0  0  0  0  0  0
  1  2  1  0  0  0  0
  1  3  1  0  0  0  0
  1  4  1  0  0  0  0
  1  5  1  0  0  0  0
  5  6  1  0  0  0  0
  5  7  1  0  0  0  0
  5  8  1  0  0  0  0
  8  9  1  0  0  0  0
  8 10  1  0  0  0  0
  8 11  1  0  0  0  0
 11 12  1  0  0  0  0
 11 13  1  0  0  0  0
 11 14  1  0  0  0  0
 14 15  1  0  0  0  0
 14 16  1  0  0  0  0
 14 17  1  0  0  0  0
 17 18  1  0  0  0  0
 17 19  1  0  0  0  0
 17 20  1  0  0  0  0
 20 21  1  0  0  0  0
 20 22  1  0  0  0  0
 22 23  1  0  0  0  0
 22 24  1  0  0  0  0
 22 25  1  0  0  0  0
 20 26  1  0  0  0  0
 26 27  1  0  0  0  0
 26 28  1  0  0  0  0
 26 29  1  0  0  0  0
M  END
> <VM2 Rank>
39

> <Conf_Id>
228

> <Probability>
0.86

> <Sum Probability>
85.76

> <Delta G>
1.504

> <G>
35.206

> <E>
-2.772

> <-TS>
37.978

> <U+W>
-26.917

> <U>
25.708

> <W>
-52.624

> <W(PB)>
-55.091

> <W(SA)>
2.466

> <Valence>
4.405

> <Coulomb>
20.450

> <VdW>
0.853

> <VdW6>
-10.192

> <VdW12>
11.045

> <Bond>
0.273

> <Angle>
1.693

> <Pdih>
2.439

> <Idih>
0.000

> <Tether>
0.000

$$$$
VeraChem MOL file


 29 28  0  0  0  0  0  0  0  0999 V2000     
   19.9959   19.2116   18.9972 C   0  0  0  0  0  0  0  0  0  0  0  0
   20.2439   20.2396   18.7022 H   0  0  0  0  0  0  0  0  0  0  0  0
   20.9104   18.6075   18.9341 H   0  0  0  0  0  0  0  0  0  0  0  0
   19.2788   18.8153   18.2666 H   0  0  0  0  0  0  0  0  0  0  0  0
   19.4018   19.1705   20.4211 C   0  0  0  0  0  0  0  0  0  0  0  0
   19.1291   18.1348   20.6624 H   0  0  0  0  0  0  0  0  0  0  0  0
   18.4740   19.7590   20.4456 H   0  0  0  0  0  0  0  0  0  0  0  0
   20.3974   19.7207   21.4696 C   0  0  0  0  0  0  0  0  0  0  0  0
   21.3026   19.0980   21.4842 H   0  0  0  0  0  0  0  0  0  0  0  0
   20.7197   20.7248   21.1608 H   0  0  0  0  0  0  0  0  0  0  0  0
   19.8083   19.8144   22.8986 C   0  0  0  0  0  0  0  0  0  0  0  0
   18.9037   20.4378   22.8829 H   0  0  0  0  0  0  0  0  0  0  0  0
   20.5358   20.3407   23.5302 H   0  0  0  0  0  0  0  0  0  0  0  0
   19.4828   18.4347   23.5251 C   0  0  0  0  0  0  0  0  0  0  0  0
   18.7403   17.9156   22.9056 H   0  0  0  0  0  0  0  0  0  0  0  0
   20.3792   17.8009   23.5173 H   0  0  0  0  0  0  0  0  0  0  0  0
   18.9143   18.5360   24.9644 C   0  0  0  0  0  0  0  0  0  0  0  0
   18.6827   17.5259   25.3274 H   0  0  0  0  0  0  0  0  0  0  0  0
   17.9561   19.0705   24.9213 H   0  0  0  0  0  0  0  0  0  0  0  0
   19.8316   19.2458   25.9882 C   0  0  2  0  0  0  0  0  0  0  0  0
   20.0440   20.2544   25.6219 H   0  0  0  0  0  0  0  0  0  0  0  0
   21.1674   18.5057   26.1795 C   0  0  0  0  0  0  0  0  0  0  0  0
   21.0041   17.4671   26.4928 H   0  0  0  0  0  0  0  0  0  0  0  0
   21.7535   18.4976   25.2531 H   0  0  0  0  0  0  0  0  0  0  0  0
   21.7773   19.0006   26.9452 H   0  0  0  0  0  0  0  0  0  0  0  0
   19.1366   19.4166   27.3103 N   0  3  0  0  0  0  0  0  0  0  0  0
   18.9036   18.5124   27.7297 H   0  0  0  0  0  0  0  0  0  0  0  0
   18.2644   19.9444   27.2124 H   0  0  0  0  0  0  0  0  0  0  0  0
   19.7246   19.9213   27.9797 H   0  0  0  0  0  0  0  0  0  0  0  0
  1  2  1  0  0  0  0
  1  3  1  0  0  0  0
  1  4  1  0  0  0  0
  1  5  1  0  0  0  0
  5  6  1  0  0  0  0
  5  7  1  0  0  0  0
  5  8  1  0  0  0  0
  8  9  1  0  0  0  0
  8 10  1  0  0  0  0
  8 11  1  0  0  0  0
 11 12  1  0  0  0  0
 11 13  1  0  0  0  0
 11 14  1  0  0  0  0
 14 15  1  0  0  0  0
 14 16  1  0  0  0  0
 14 17  1  0  0  0  0
 17 18  1  0  0  0  0
 17 19  1  0  0  0  0
 17 20  1  0  0  0  0
 20 21  1  0  0  0  0
 20 22  1  0  0  0  0
 22 23  1  0  0  0  0
 22 24  1  0  0  0  0
 22 25  1  0  0  0  0
 20 26  1  0  0  0  0
 26 27  1  0  0  0  0
 26 28  1  0  0  0  0
 26 29  1  0  0  0  0
M  END
> <VM2 Rank>
40

> <Conf_Id>
306

> <Probability>
0.68

> <Sum Probability>
86.44

> <Delta G>
1.637

> <G>
35.339

> <E>
-2.400

> <-TS>
37.739

> <U+W>
-26.545

> <U>
25.622

> <W>
-52.167

> <W(PB)>
-54.631

> <W(SA)>
2.464

> <Valence>
4.553

> <Coulomb>
19.890

> <VdW>
1.179

> <VdW6>
-9.673

> <VdW12>
10.852

> <Bond>
0.276

> <Angle>
1.749

> <Pdih>
2.528

> <Idih>
0.000

> <Tether>
0.000

$$$$
VeraChem MOL file


 29 28  0  0  0  0  0  0  0  0999 V2000     
   21.0026   18.9266   19.7855 C   0  0  0  0  0  0  0  0  0  0  0  0
   21.4903   18.0039   19.4453 H   0  0  0  0  0  0  0  0  0  0  0  0
   20.4640   19.3575   18.9314 H   0  0  0  0  0  0  0  0  0  0  0  0
   21.7880   19.6323   20.0859 H   0  0  0  0  0  0  0  0  0  0  0  0
   20.0419   18.6349   20.9575 C   0  0  0  0  0  0  0  0  0  0  0  0
   20.6088   18.1695   21.7748 H   0  0  0  0  0  0  0  0  0  0  0  0
   19.2859   17.9047   20.6368 H   0  0  0  0  0  0  0  0  0  0  0  0
   19.3451   19.9222   21.4575 C   0  0  0  0  0  0  0  0  0  0  0  0
   20.0978   20.6362   21.8168 H   0  0  0  0  0  0  0  0  0  0  0  0
   18.8485   20.4114   20.6083 H   0  0  0  0  0  0  0  0  0  0  0  0
   18.2851   19.6674   22.5603 C   0  0  0  0  0  0  0  0  0  0  0  0
   17.4747   19.0565   22.1393 H   0  0  0  0  0  0  0  0  0  0  0  0
   17.8253   20.6266   22.8355 H   0  0  0  0  0  0  0  0  0  0  0  0
   18.8131   18.9760   23.8439 C   0  0  0  0  0  0  0  0  0  0  0  0
   17.9675   18.8486   24.5322 H   0  0  0  0  0  0  0  0  0  0  0  0
   19.1585   17.9640   23.5981 H   0  0  0  0  0  0  0  0  0  0  0  0
   19.9426   19.7728   24.5518 C   0  0  0  0  0  0  0  0  0  0  0  0
   19.6090   20.8063   24.7124 H   0  0  0  0  0  0  0  0  0  0  0  0
   20.8185   19.8349   23.8939 H   0  0  0  0  0  0  0  0  0  0  0  0
   20.3980   19.1870   25.9089 C   0  0  2  0  0  0  0  0  0  0  0  0
   21.1770   19.8471   26.3029 H   0  0  0  0  0  0  0  0  0  0  0  0
   21.0106   17.7839   25.7552 C   0  0  0  0  0  0  0  0  0  0  0  0
   21.8113   17.7881   25.0053 H   0  0  0  0  0  0  0  0  0  0  0  0
   21.4461   17.4496   26.7048 H   0  0  0  0  0  0  0  0  0  0  0  0
   20.2596   17.0445   25.4526 H   0  0  0  0  0  0  0  0  0  0  0  0
   19.2970   19.1853   26.9334 N   0  3  0  0  0  0  0  0  0  0  0  0
   18.5264   18.5756   26.6492 H   0  0  0  0  0  0  0  0  0  0  0  0
   18.9128   20.1242   27.0728 H   0  0  0  0  0  0  0  0  0  0  0  0
   19.6324   18.8535   27.8423 H   0  0  0  0  0  0  0  0  0  0  0  0
  1  2  1  0  0  0  0
  1  3  1  0  0  0  0
  1  4  1  0  0  0  0
  1  5  1  0  0  0  0
  5  6  1  0  0  0  0
  5  7  1  0  0  0  0
  5  8  1  0  0  0  0
  8  9  1  0  0  0  0
  8 10  1  0  0  0  0
  8 11  1  0  0  0  0
 11 12  1  0  0  0  0
 11 13  1  0  0  0  0
 11 14  1  0  0  0  0
 14 15  1  0  0  0  0
 14 16  1  0  0  0  0
 14 17  1  0  0  0  0
 17 18  1  0  0  0  0
 17 19  1  0  0  0  0
 17 20  1  0  0  0  0
 20 21  1  0  0  0  0
 20 22  1  0  0  0  0
 22 23  1  0  0  0  0
 22 24  1  0  0  0  0
 22 25  1  0  0  0  0
 20 26  1  0  0  0  0
 26 27  1  0  0  0  0
 26 28  1  0  0  0  0
 26 29  1  0  0  0  0
M  END
> <VM2 Rank>
41

> <Conf_Id>
989

> <Probability>
0.63

> <Sum Probability>
87.07

> <Delta G>
1.686

> <G>
35.387

> <E>
-2.614

> <-TS>
38.002

> <U+W>
-26.759

> <U>
25.698

> <W>
-52.457

> <W(PB)>
-54.884

> <W(SA)>
2.427

> <Valence>
4.638

> <Coulomb>
19.916

> <VdW>
1.144

> <VdW6>
-10.434

> <VdW12>
11.578

> <Bond>
0.315

> <Angle>
1.852

> <Pdih>
2.471

> <Idih>
0.000

> <Tether>
0.000

$$$$
VeraChem MOL file


 29 28  0  0  0  0  0  0  0  0999 V2000     
   20.4024   20.7305   20.6113 C   0  0  0  0  0  0  0  0  0  0  0  0
   20.5808   21.2087   19.6395 H   0  0  0  0  0  0  0  0  0  0  0  0
   19.5655   21.2554   21.0883 H   0  0  0  0  0  0  0  0  0  0  0  0
   21.2984   20.8788   21.2280 H   0  0  0  0  0  0  0  0  0  0  0  0
   20.0979   19.2267   20.4262 C   0  0  0  0  0  0  0  0  0  0  0  0
   20.9081   18.7705   19.8404 H   0  0  0  0  0  0  0  0  0  0  0  0
   19.1820   19.1051   19.8310 H   0  0  0  0  0  0  0  0  0  0  0  0
   19.9596   18.4606   21.7635 C   0  0  0  0  0  0  0  0  0  0  0  0
   19.8551   17.3891   21.5442 H   0  0  0  0  0  0  0  0  0  0  0  0
   20.8892   18.5716   22.3371 H   0  0  0  0  0  0  0  0  0  0  0  0
   18.7494   18.9232   22.6131 C   0  0  0  0  0  0  0  0  0  0  0  0
   17.8453   18.9012   21.9891 H   0  0  0  0  0  0  0  0  0  0  0  0
   18.8819   19.9686   22.9186 H   0  0  0  0  0  0  0  0  0  0  0  0
   18.5028   18.0410   23.8641 C   0  0  0  0  0  0  0  0  0  0  0  0
   17.6090   18.4071   24.3867 H   0  0  0  0  0  0  0  0  0  0  0  0
   18.2582   17.0201   23.5396 H   0  0  0  0  0  0  0  0  0  0  0  0
   19.6919   17.9760   24.8596 C   0  0  0  0  0  0  0  0  0  0  0  0
   20.5241   17.4350   24.3911 H   0  0  0  0  0  0  0  0  0  0  0  0
   19.3961   17.3755   25.7300 H   0  0  0  0  0  0  0  0  0  0  0  0
   20.1908   19.3577   25.3371 C   0  0  2  0  0  0  0  0  0  0  0  0
   20.4823   19.9406   24.4582 H   0  0  0  0  0  0  0  0  0  0  0  0
   21.4250   19.1998   26.2388 C   0  0  0  0  0  0  0  0  0  0  0  0
   22.2328   18.6827   25.7062 H   0  0  0  0  0  0  0  0  0  0  0  0
   21.8059   20.1801   26.5506 H   0  0  0  0  0  0  0  0  0  0  0  0
   21.1864   18.6228   27.1411 H   0  0  0  0  0  0  0  0  0  0  0  0
   19.1163   20.1406   26.0404 N   0  3  0  0  0  0  0  0  0  0  0  0
   19.4504   21.0665   26.3225 H   0  0  0  0  0  0  0  0  0  0  0  0
   18.7971   19.6586   26.8849 H   0  0  0  0  0  0  0  0  0  0  0  0
   18.3014   20.2769   25.4362 H   0  0  0  0  0  0  0  0  0  0  0  0
  1  2  1  0  0  0  0
  1  3  1  0  0  0  0
  1  4  1  0  0  0  0
  1  5  1  0  0  0  0
  5  6  1  0  0  0  0
  5  7  1  0  0  0  0
  5  8  1  0  0  0  0
  8  9  1  0  0  0  0
  8 10  1  0  0  0  0
  8 11  1  0  0  0  0
 11 12  1  0  0  0  0
 11 13  1  0  0  0  0
 11 14  1  0  0  0  0
 14 15  1  0  0  0  0
 14 16  1  0  0  0  0
 14 17  1  0  0  0  0
 17 18  1  0  0  0  0
 17 19  1  0  0  0  0
 17 20  1  0  0  0  0
 20 21  1  0  0  0  0
 20 22  1  0  0  0  0
 22 23  1  0  0  0  0
 22 24  1  0  0  0  0
 22 25  1  0  0  0  0
 20 26  1  0  0  0  0
 26 27  1  0  0  0  0
 26 28  1  0  0  0  0
 26 29  1  0  0  0  0
M  END
> <VM2 Rank>
42

> <Conf_Id>
1247

> <Probability>
0.62

> <Sum Probability>
87.69

> <Delta G>
1.699

> <G>
35.401

> <E>
-2.584

> <-TS>
37.985

> <U+W>
-26.729

> <U>
25.699

> <W>
-52.427

> <W(PB)>
-54.859

> <W(SA)>
2.432

> <Valence>
4.391

> <Coulomb>
20.476

> <VdW>
0.832

> <VdW6>
-10.723

> <VdW12>
11.555

> <Bond>
0.298

> <Angle>
1.586

> <Pdih>
2.506

> <Idih>
0.000

> <Tether>
0.000

$$$$
VeraChem MOL file


 29 28  0  0  0  0  0  0  0  0999 V2000     
   19.6748   20.5816   20.1552 C   0  0  0  0  0  0  0  0  0  0  0  0
   18.8500   20.3274   19.4769 H   0  0  0  0  0  0  0  0  0  0  0  0
   19.2473   20.9923   21.0783 H   0  0  0  0  0  0  0  0  0  0  0  0
   20.2662   21.3764   19.6826 H   0  0  0  0  0  0  0  0  0  0  0  0
   20.5585   19.3467   20.4416 C   0  0  0  0  0  0  0  0  0  0  0  0
   21.3634   19.6201   21.1369 H   0  0  0  0  0  0  0  0  0  0  0  0
   21.0567   19.0446   19.5098 H   0  0  0  0  0  0  0  0  0  0  0  0
   19.7642   18.1345   20.9911 C   0  0  0  0  0  0  0  0  0  0  0  0
   19.0486   17.8031   20.2261 H   0  0  0  0  0  0  0  0  0  0  0  0
   20.4573   17.2947   21.1379 H   0  0  0  0  0  0  0  0  0  0  0  0
   18.9953   18.3901   22.3131 C   0  0  0  0  0  0  0  0  0  0  0  0
   18.4643   17.4682   22.5873 H   0  0  0  0  0  0  0  0  0  0  0  0
   18.2185   19.1495   22.1527 H   0  0  0  0  0  0  0  0  0  0  0  0
   19.9089   18.8135   23.4881 C   0  0  0  0  0  0  0  0  0  0  0  0
   20.7116   18.0731   23.6008 H   0  0  0  0  0  0  0  0  0  0  0  0
   20.3869   19.7755   23.2609 H   0  0  0  0  0  0  0  0  0  0  0  0
   19.1152   18.9432   24.8112 C   0  0  0  0  0  0  0  0  0  0  0  0
   18.6923   17.9679   25.0870 H   0  0  0  0  0  0  0  0  0  0  0  0
   18.2635   19.6154   24.6427 H   0  0  0  0  0  0  0  0  0  0  0  0
   19.9512   19.4984   25.9869 C   0  0  2  0  0  0  0  0  0  0  0  0
   20.3932   20.4496   25.6746 H   0  0  0  0  0  0  0  0  0  0  0  0
   21.0875   18.5431   26.3934 C   0  0  0  0  0  0  0  0  0  0  0  0
   21.8169   18.4235   25.5840 H   0  0  0  0  0  0  0  0  0  0  0  0
   21.6298   18.9357   27.2624 H   0  0  0  0  0  0  0  0  0  0  0  0
   20.6977   17.5515   26.6551 H   0  0  0  0  0  0  0  0  0  0  0  0
   19.0804   19.8049   27.1735 N   0  3  0  0  0  0  0  0  0  0  0  0
   18.6269   18.9604   27.5325 H   0  0  0  0  0  0  0  0  0  0  0  0
   18.3420   20.4739   26.9367 H   0  0  0  0  0  0  0  0  0  0  0  0
   19.6236   20.2100   27.9413 H   0  0  0  0  0  0  0  0  0  0  0  0
  1  2  1  0  0  0  0
  1  3  1  0  0  0  0
  1  4  1  0  0  0  0
  1  5  1  0  0  0  0
  5  6  1  0  0  0  0
  5  7  1  0  0  0  0
  5  8  1  0  0  0  0
  8  9  1  0  0  0  0
  8 10  1  0  0  0  0
  8 11  1  0  0  0  0
 11 12  1  0  0  0  0
 11 13  1  0  0  0  0
 11 14  1  0  0  0  0
 14 15  1  0  0  0  0
 14 16  1  0  0  0  0
 14 17  1  0  0  0  0
 17 18  1  0  0  0  0
 17 19  1  0  0  0  0
 17 20  1  0  0  0  0
 20 21  1  0  0  0  0
 20 22  1  0  0  0  0
 22 23  1  0  0  0  0
 22 24  1  0  0  0  0
 22 25  1  0  0  0  0
 20 26  1  0  0  0  0
 26 27  1  0  0  0  0
 26 28  1  0  0  0  0
 26 29  1  0  0  0  0
M  END
> <VM2 Rank>
43

> <Conf_Id>
655

> <Probability>
0.62

> <Sum Probability>
88.31

> <Delta G>
1.700

> <G>
35.402

> <E>
-2.432

> <-TS>
37.834

> <U+W>
-26.577

> <U>
25.529

> <W>
-52.105

> <W(PB)>
-54.578

> <W(SA)>
2.473

> <Valence>
4.665

> <Coulomb>
19.602

> <VdW>
1.262

> <VdW6>
-9.718

> <VdW12>
10.979

> <Bond>
0.278

> <Angle>
1.798

> <Pdih>
2.589

> <Idih>
0.000

> <Tether>
0.000

$$$$
VeraChem MOL file


 29 28  0  0  0  0  0  0  0  0999 V2000     
   19.4445   17.9366   20.1470 C   0  0  0  0  0  0  0  0  0  0  0  0
   18.9734   17.5666   21.0662 H   0  0  0  0  0  0  0  0  0  0  0  0
   18.6589   18.3420   19.4963 H   0  0  0  0  0  0  0  0  0  0  0  0
   19.8934   17.0752   19.6358 H   0  0  0  0  0  0  0  0  0  0  0  0
   20.5184   19.0049   20.4523 C   0  0  0  0  0  0  0  0  0  0  0  0
   21.0421   19.2565   19.5195 H   0  0  0  0  0  0  0  0  0  0  0  0
   21.2816   18.5832   21.1199 H   0  0  0  0  0  0  0  0  0  0  0  0
   19.9372   20.3081   21.0578 C   0  0  0  0  0  0  0  0  0  0  0  0
   20.7584   21.0199   21.2193 H   0  0  0  0  0  0  0  0  0  0  0  0
   19.2740   20.7774   20.3182 H   0  0  0  0  0  0  0  0  0  0  0  0
   19.1546   20.1322   22.3849 C   0  0  0  0  0  0  0  0  0  0  0  0
   18.2640   19.5128   22.2149 H   0  0  0  0  0  0  0  0  0  0  0  0
   18.7820   21.1173   22.6976 H   0  0  0  0  0  0  0  0  0  0  0  0
   20.0032   19.5263   23.5284 C   0  0  0  0  0  0  0  0  0  0  0  0
   20.3233   18.5159   23.2465 H   0  0  0  0  0  0  0  0  0  0  0  0
   20.9132   20.1263   23.6672 H   0  0  0  0  0  0  0  0  0  0  0  0
   19.2131   19.4694   24.8589 C   0  0  0  0  0  0  0  0  0  0  0  0
   18.3341   18.8220   24.7399 H   0  0  0  0  0  0  0  0  0  0  0  0
   18.8315   20.4744   25.0824 H   0  0  0  0  0  0  0  0  0  0  0  0
   20.0545   18.9879   26.0630 C   0  0  2  0  0  0  0  0  0  0  0  0
   20.9451   19.6200   26.1341 H   0  0  0  0  0  0  0  0  0  0  0  0
   20.5063   17.5246   25.9083 C   0  0  0  0  0  0  0  0  0  0  0  0
   21.1807   17.4032   25.0528 H   0  0  0  0  0  0  0  0  0  0  0  0
   21.0520   17.1926   26.8001 H   0  0  0  0  0  0  0  0  0  0  0  0
   19.6472   16.8569   25.7671 H   0  0  0  0  0  0  0  0  0  0  0  0
   19.3042   19.1660   27.3536 N   0  3  0  0  0  0  0  0  0  0  0  0
   19.0309   20.1423   27.4993 H   0  0  0  0  0  0  0  0  0  0  0  0
   19.8722   18.8856   28.1582 H   0  0  0  0  0  0  0  0  0  0  0  0
   18.4504   18.6016   27.3707 H   0  0  0  0  0  0  0  0  0  0  0  0
  1  2  1  0  0  0  0
  1  3  1  0  0  0  0
  1  4  1  0  0  0  0
  1  5  1  0  0  0  0
  5  6  1  0  0  0  0
  5  7  1  0  0  0  0
  5  8  1  0  0  0  0
  8  9  1  0  0  0  0
  8 10  1  0  0  0  0
  8 11  1  0  0  0  0
 11 12  1  0  0  0  0
 11 13  1  0  0  0  0
 11 14  1  0  0  0  0
 14 15  1  0  0  0  0
 14 16  1  0  0  0  0
 14 17  1  0  0  0  0
 17 18  1  0  0  0  0
 17 19  1  0  0  0  0
 17 20  1  0  0  0  0
 20 21  1  0  0  0  0
 20 22  1  0  0  0  0
 22 23  1  0  0  0  0
 22 24  1  0  0  0  0
 22 25  1  0  0  0  0
 20 26  1  0  0  0  0
 26 27  1  0  0  0  0
 26 28  1  0  0  0  0
 26 29  1  0  0  0  0
M  END
> <VM2 Rank>
44

> <Conf_Id>
1341

> <Probability>
0.58

> <Sum Probability>
88.89

> <Delta G>
1.735

> <G>
35.437

> <E>
-2.399

> <-TS>
37.836

> <U+W>
-26.544

> <U>
25.494

> <W>
-52.037

> <W(PB)>
-54.506

> <W(SA)>
2.469

> <Valence>
4.662

> <Coulomb>
19.570

> <VdW>
1.262

> <VdW6>
-9.758

> <VdW12>
11.020

> <Bond>
0.281

> <Angle>
1.806

> <Pdih>
2.576

> <Idih>
0.000

> <Tether>
0.000

$$$$
VeraChem MOL file


 29 28  0  0  0  0  0  0  0  0999 V2000     
   19.7365   20.2428   19.5955 C   0  0  0  0  0  0  0  0  0  0  0  0
   19.6852   20.2938   18.5002 H   0  0  0  0  0  0  0  0  0  0  0  0
   18.7764   20.6001   19.9880 H   0  0  0  0  0  0  0  0  0  0  0  0
   20.5226   20.9333   19.9276 H   0  0  0  0  0  0  0  0  0  0  0  0
   20.0351   18.7982   20.0564 C   0  0  0  0  0  0  0  0  0  0  0  0
   20.9424   18.4439   19.5477 H   0  0  0  0  0  0  0  0  0  0  0  0
   19.2222   18.1322   19.7347 H   0  0  0  0  0  0  0  0  0  0  0  0
   20.2409   18.6727   21.5851 C   0  0  0  0  0  0  0  0  0  0  0  0
   20.5465   17.6423   21.8130 H   0  0  0  0  0  0  0  0  0  0  0  0
   21.0748   19.3192   21.8884 H   0  0  0  0  0  0  0  0  0  0  0  0
   18.9724   19.0187   22.4051 C   0  0  0  0  0  0  0  0  0  0  0  0
   18.1207   18.4539   22.0017 H   0  0  0  0  0  0  0  0  0  0  0  0
   18.7244   20.0815   22.2847 H   0  0  0  0  0  0  0  0  0  0  0  0
   19.1063   18.6947   23.9133 C   0  0  0  0  0  0  0  0  0  0  0  0
   18.1315   18.8674   24.3877 H   0  0  0  0  0  0  0  0  0  0  0  0
   19.3245   17.6252   24.0322 H   0  0  0  0  0  0  0  0  0  0  0  0
   20.1911   19.5449   24.6292 C   0  0  0  0  0  0  0  0  0  0  0  0
   20.0191   20.6072   24.4124 H   0  0  0  0  0  0  0  0  0  0  0  0
   21.1792   19.3067   24.2159 H   0  0  0  0  0  0  0  0  0  0  0  0
   20.2512   19.3615   26.1640 C   0  0  2  0  0  0  0  0  0  0  0  0
   21.0416   20.0190   26.5393 H   0  0  0  0  0  0  0  0  0  0  0  0
   20.6172   17.9204   26.5595 C   0  0  0  0  0  0  0  0  0  0  0  0
   20.7833   17.8499   27.6414 H   0  0  0  0  0  0  0  0  0  0  0  0
   19.8215   17.2134   26.2960 H   0  0  0  0  0  0  0  0  0  0  0  0
   21.5403   17.6015   26.0597 H   0  0  0  0  0  0  0  0  0  0  0  0
   18.9852   19.8022   26.8459 N   0  3  0  0  0  0  0  0  0  0  0  0
   18.1898   19.2256   26.5608 H   0  0  0  0  0  0  0  0  0  0  0  0
   18.7573   20.7751   26.6218 H   0  0  0  0  0  0  0  0  0  0  0  0
   19.0655   19.7332   27.8644 H   0  0  0  0  0  0  0  0  0  0  0  0
  1  2  1  0  0  0  0
  1  3  1  0  0  0  0
  1  4  1  0  0  0  0
  1  5  1  0  0  0  0
  5  6  1  0  0  0  0
  5  7  1  0  0  0  0
  5  8  1  0  0  0  0
  8  9  1  0  0  0  0
  8 10  1  0  0  0  0
  8 11  1  0  0  0  0
 11 12  1  0  0  0  0
 11 13  1  0  0  0  0
 11 14  1  0  0  0  0
 14 15  1  0  0  0  0
 14 16  1  0  0  0  0
 14 17  1  0  0  0  0
 17 18  1  0  0  0  0
 17 19  1  0  0  0  0
 17 20  1  0  0  0  0
 20 21  1  0  0  0  0
 20 22  1  0  0  0  0
 22 23  1  0  0  0  0
 22 24  1  0  0  0  0
 22 25  1  0  0  0  0
 20 26  1  0  0  0  0
 26 27  1  0  0  0  0
 26 28  1  0  0  0  0
 26 29  1  0  0  0  0
M  END
> <VM2 Rank>
45

> <Conf_Id>
909

> <Probability>
0.57

> <Sum Probability>
89.46

> <Delta G>
1.746

> <G>
35.448

> <E>
-2.332

> <-TS>
37.780

> <U+W>
-26.477

> <U>
25.725

> <W>
-52.202

> <W(PB)>
-54.668

> <W(SA)>
2.467

> <Valence>
4.677

> <Coulomb>
19.669

> <VdW>
1.379

> <VdW6>
-9.934

> <VdW12>
11.313

> <Bond>
0.305

> <Angle>
1.629

> <Pdih>
2.742

> <Idih>
0.000

> <Tether>
0.000

$$$$
VeraChem MOL file


 29 28  0  0  0  0  0  0  0  0999 V2000     
   18.7260   18.9682   19.5904 C   0  0  0  0  0  0  0  0  0  0  0  0
   17.7941   19.3498   20.0273 H   0  0  0  0  0  0  0  0  0  0  0  0
   18.6267   19.0099   18.4980 H   0  0  0  0  0  0  0  0  0  0  0  0
   18.8314   17.9131   19.8723 H   0  0  0  0  0  0  0  0  0  0  0  0
   19.9404   19.8032   20.0555 C   0  0  0  0  0  0  0  0  0  0  0  0
   19.8462   20.8213   19.6525 H   0  0  0  0  0  0  0  0  0  0  0  0
   20.8619   19.3864   19.6257 H   0  0  0  0  0  0  0  0  0  0  0  0
   20.0722   19.8881   21.5952 C   0  0  0  0  0  0  0  0  0  0  0  0
   20.8938   20.5760   21.8379 H   0  0  0  0  0  0  0  0  0  0  0  0
   19.1586   20.3357   22.0075 H   0  0  0  0  0  0  0  0  0  0  0  0
   20.3445   18.5164   22.2632 C   0  0  0  0  0  0  0  0  0  0  0  0
   21.1793   18.0269   21.7430 H   0  0  0  0  0  0  0  0  0  0  0  0
   19.4744   17.8580   22.1404 H   0  0  0  0  0  0  0  0  0  0  0  0
   20.6981   18.6181   23.7676 C   0  0  0  0  0  0  0  0  0  0  0  0
   21.0044   17.6209   24.1084 H   0  0  0  0  0  0  0  0  0  0  0  0
   21.5717   19.2717   23.8969 H   0  0  0  0  0  0  0  0  0  0  0  0
   19.5262   19.1309   24.6446 C   0  0  0  0  0  0  0  0  0  0  0  0
   18.6568   18.4709   24.5246 H   0  0  0  0  0  0  0  0  0  0  0  0
   19.2183   20.1205   24.2860 H   0  0  0  0  0  0  0  0  0  0  0  0
   19.8799   19.2570   26.1444 C   0  0  2  0  0  0  0  0  0  0  0  0
   20.7833   19.8681   26.2340 H   0  0  0  0  0  0  0  0  0  0  0  0
   20.1489   17.8891   26.7973 C   0  0  0  0  0  0  0  0  0  0  0  0
   19.2926   17.2146   26.6727 H   0  0  0  0  0  0  0  0  0  0  0  0
   21.0329   17.4064   26.3655 H   0  0  0  0  0  0  0  0  0  0  0  0
   20.3367   18.0046   27.8719 H   0  0  0  0  0  0  0  0  0  0  0  0
   18.8000   19.9851   26.8957 N   0  3  0  0  0  0  0  0  0  0  0  0
   18.6336   20.9181   26.5074 H   0  0  0  0  0  0  0  0  0  0  0  0
   19.0470   20.1056   27.8822 H   0  0  0  0  0  0  0  0  0  0  0  0
   17.9129   19.4753   26.8630 H   0  0  0  0  0  0  0  0  0  0  0  0
  1  2  1  0  0  0  0
  1  3  1  0  0  0  0
  1  4  1  0  0  0  0
  1  5  1  0  0  0  0
  5  6  1  0  0  0  0
  5  7  1  0  0  0  0
  5  8  1  0  0  0  0
  8  9  1  0  0  0  0
  8 10  1  0  0  0  0
  8 11  1  0  0  0  0
 11 12  1  0  0  0  0
 11 13  1  0  0  0  0
 11 14  1  0  0  0  0
 14 15  1  0  0  0  0
 14 16  1  0  0  0  0
 14 17  1  0  0  0  0
 17 18  1  0  0  0  0
 17 19  1  0  0  0  0
 17 20  1  0  0  0  0
 20 21  1  0  0  0  0
 20 22  1  0  0  0  0
 22 23  1  0  0  0  0
 22 24  1  0  0  0  0
 22 25  1  0  0  0  0
 20 26  1  0  0  0  0
 26 27  1  0  0  0  0
 26 28  1  0  0  0  0
 26 29  1  0  0  0  0
M  END
> <VM2 Rank>
46

> <Conf_Id>
280

> <Probability>
0.55

> <Sum Probability>
90.00

> <Delta G>
1.770

> <G>
35.472

> <E>
-2.098

> <-TS>
37.570

> <U+W>
-26.242

> <U>
25.974

> <W>
-52.216

> <W(PB)>
-54.709

> <W(SA)>
2.492

> <Valence>
4.812

> <Coulomb>
19.700

> <VdW>
1.463

> <VdW6>
-9.391

> <VdW12>
10.854

> <Bond>
0.285

> <Angle>
1.670

> <Pdih>
2.856

> <Idih>
0.000

> <Tether>
0.000

$$$$
VeraChem MOL file


 29 28  0  0  0  0  0  0  0  0999 V2000     
   20.1403   19.1621   19.2040 C   0  0  0  0  0  0  0  0  0  0  0  0
   20.9556   19.8502   19.4592 H   0  0  0  0  0  0  0  0  0  0  0  0
   20.5414   18.1403   19.1961 H   0  0  0  0  0  0  0  0  0  0  0  0
   19.8141   19.4024   18.1839 H   0  0  0  0  0  0  0  0  0  0  0  0
   18.9588   19.2878   20.1926 C   0  0  0  0  0  0  0  0  0  0  0  0
   18.1232   18.6776   19.8221 H   0  0  0  0  0  0  0  0  0  0  0  0
   18.5980   20.3257   20.2084 H   0  0  0  0  0  0  0  0  0  0  0  0
   19.3051   18.8317   21.6307 C   0  0  0  0  0  0  0  0  0  0  0  0
   18.3776   18.8281   22.2174 H   0  0  0  0  0  0  0  0  0  0  0  0
   19.6633   17.7933   21.6097 H   0  0  0  0  0  0  0  0  0  0  0  0
   20.3553   19.7337   22.3276 C   0  0  0  0  0  0  0  0  0  0  0  0
   19.9962   20.7718   22.3499 H   0  0  0  0  0  0  0  0  0  0  0  0
   21.2809   19.7396   21.7379 H   0  0  0  0  0  0  0  0  0  0  0  0
   20.7068   19.2745   23.7642 C   0  0  0  0  0  0  0  0  0  0  0  0
   21.0790   18.2421   23.7292 H   0  0  0  0  0  0  0  0  0  0  0  0
   21.5373   19.8923   24.1330 H   0  0  0  0  0  0  0  0  0  0  0  0
   19.5202   19.3831   24.7565 C   0  0  0  0  0  0  0  0  0  0  0  0
   18.7358   18.6645   24.4878 H   0  0  0  0  0  0  0  0  0  0  0  0
   19.0758   20.3828   24.6631 H   0  0  0  0  0  0  0  0  0  0  0  0
   19.9267   19.1637   26.2314 C   0  0  2  0  0  0  0  0  0  0  0  0
   20.7324   19.8636   26.4732 H   0  0  0  0  0  0  0  0  0  0  0  0
   20.4322   17.7322   26.4853 C   0  0  0  0  0  0  0  0  0  0  0  0
   21.3477   17.5266   25.9186 H   0  0  0  0  0  0  0  0  0  0  0  0
   20.6687   17.5886   27.5469 H   0  0  0  0  0  0  0  0  0  0  0  0
   19.6773   16.9885   26.2012 H   0  0  0  0  0  0  0  0  0  0  0  0
   18.7905   19.4872   27.1615 N   0  3  0  0  0  0  0  0  0  0  0  0
   19.0679   19.3811   28.1415 H   0  0  0  0  0  0  0  0  0  0  0  0
   17.9895   18.8702   27.0022 H   0  0  0  0  0  0  0  0  0  0  0  0
   18.4661   20.4509   27.0395 H   0  0  0  0  0  0  0  0  0  0  0  0
  1  2  1  0  0  0  0
  1  3  1  0  0  0  0
  1  4  1  0  0  0  0
  1  5  1  0  0  0  0
  5  6  1  0  0  0  0
  5  7  1  0  0  0  0
  5  8  1  0  0  0  0
  8  9  1  0  0  0  0
  8 10  1  0  0  0  0
  8 11  1  0  0  0  0
 11 12  1  0  0  0  0
 11 13  1  0  0  0  0
 11 14  1  0  0  0  0
 14 15  1  0  0  0  0
 14 16  1  0  0  0  0
 14 17  1  0  0  0  0
 17 18  1  0  0  0  0
 17 19  1  0  0  0  0
 17 20  1  0  0  0  0
 20 21  1  0  0  0  0
 20 22  1  0  0  0  0
 22 23  1  0  0  0  0
 22 24  1  0  0  0  0
 22 25  1  0  0  0  0
 20 26  1  0  0  0  0
 26 27  1  0  0  0  0
 26 28  1  0  0  0  0
 26 29  1  0  0  0  0
M  END
> <VM2 Rank>
47

> <Conf_Id>
1230

> <Probability>
0.53

> <Sum Probability>
90.53

> <Delta G>
1.792

> <G>
35.494

> <E>
-2.104

> <-TS>
37.598

> <U+W>
-26.249

> <U>
25.821

> <W>
-52.070

> <W(PB)>
-54.584

> <W(SA)>
2.514

> <Valence>
4.779

> <Coulomb>
19.614

> <VdW>
1.428

> <VdW6>
-9.390

> <VdW12>
10.817

> <Bond>
0.283

> <Angle>
1.640

> <Pdih>
2.856

> <Idih>
0.000

> <Tether>
0.000

$$$$
VeraChem MOL file


 29 28  0  0  0  0  0  0  0  0999 V2000     
   19.3274   20.6259   19.8684 C   0  0  0  0  0  0  0  0  0  0  0  0
   19.9051   21.5082   19.5636 H   0  0  0  0  0  0  0  0  0  0  0  0
   19.1217   20.0309   18.9690 H   0  0  0  0  0  0  0  0  0  0  0  0
   18.3689   20.9742   20.2747 H   0  0  0  0  0  0  0  0  0  0  0  0
   20.1054   19.8000   20.9145 C   0  0  0  0  0  0  0  0  0  0  0  0
   20.3264   20.4391   21.7797 H   0  0  0  0  0  0  0  0  0  0  0  0
   21.0710   19.4908   20.4907 H   0  0  0  0  0  0  0  0  0  0  0  0
   19.3087   18.5524   21.3630 C   0  0  0  0  0  0  0  0  0  0  0  0
   18.3618   18.8620   21.8243 H   0  0  0  0  0  0  0  0  0  0  0  0
   19.0317   17.9685   20.4745 H   0  0  0  0  0  0  0  0  0  0  0  0
   20.0940   17.6261   22.3277 C   0  0  0  0  0  0  0  0  0  0  0  0
   20.9638   17.2177   21.7949 H   0  0  0  0  0  0  0  0  0  0  0  0
   19.4633   16.7619   22.5776 H   0  0  0  0  0  0  0  0  0  0  0  0
   20.5846   18.2870   23.6424 C   0  0  0  0  0  0  0  0  0  0  0  0
   21.1385   17.5277   24.2089 H   0  0  0  0  0  0  0  0  0  0  0  0
   21.3073   19.0820   23.4161 H   0  0  0  0  0  0  0  0  0  0  0  0
   19.4372   18.8549   24.5176 C   0  0  0  0  0  0  0  0  0  0  0  0
   18.7222   18.0563   24.7559 H   0  0  0  0  0  0  0  0  0  0  0  0
   18.8859   19.6055   23.9383 H   0  0  0  0  0  0  0  0  0  0  0  0
   19.9232   19.5254   25.8231 C   0  0  2  0  0  0  0  0  0  0  0  0
   20.6790   20.2733   25.5642 H   0  0  0  0  0  0  0  0  0  0  0  0
   20.5509   18.5144   26.7996 C   0  0  0  0  0  0  0  0  0  0  0  0
   19.8503   17.7039   27.0363 H   0  0  0  0  0  0  0  0  0  0  0  0
   21.4631   18.0707   26.3849 H   0  0  0  0  0  0  0  0  0  0  0  0
   20.8300   19.0073   27.7390 H   0  0  0  0  0  0  0  0  0  0  0  0
   18.8046   20.2699   26.4978 N   0  3  0  0  0  0  0  0  0  0  0  0
   18.3994   20.9810   25.8822 H   0  0  0  0  0  0  0  0  0  0  0  0
   19.1302   20.7482   27.3427 H   0  0  0  0  0  0  0  0  0  0  0  0
   18.0496   19.6375   26.7766 H   0  0  0  0  0  0  0  0  0  0  0  0
  1  2  1  0  0  0  0
  1  3  1  0  0  0  0
  1  4  1  0  0  0  0
  1  5  1  0  0  0  0
  5  6  1  0  0  0  0
  5  7  1  0  0  0  0
  5  8  1  0  0  0  0
  8  9  1  0  0  0  0
  8 10  1  0  0  0  0
  8 11  1  0  0  0  0
 11 12  1  0  0  0  0
 11 13  1  0  0  0  0
 11 14  1  0  0  0  0
 14 15  1  0  0  0  0
 14 16  1  0  0  0  0
 14 17  1  0  0  0  0
 17 18  1  0  0  0  0
 17 19  1  0  0  0  0
 17 20  1  0  0  0  0
 20 21  1  0  0  0  0
 20 22  1  0  0  0  0
 22 23  1  0  0  0  0
 22 24  1  0  0  0  0
 22 25  1  0  0  0  0
 20 26  1  0  0  0  0
 26 27  1  0  0  0  0
 26 28  1  0  0  0  0
 26 29  1  0  0  0  0
M  END
> <VM2 Rank>
48

> <Conf_Id>
201

> <Probability>
0.48

> <Sum Probability>
91.02

> <Delta G>
1.843

> <G>
35.545

> <E>
-2.257

> <-TS>
37.802

> <U+W>
-26.401

> <U>
26.111

> <W>
-52.513

> <W(PB)>
-54.998

> <W(SA)>
2.485

> <Valence>
4.789

> <Coulomb>
20.049

> <VdW>
1.273

> <VdW6>
-9.803

> <VdW12>
11.076

> <Bond>
0.295

> <Angle>
1.940

> <Pdih>
2.553

> <Idih>
0.000

> <Tether>
0.000

$$$$
VeraChem MOL file


 29 28  0  0  0  0  0  0  0  0999 V2000     
   20.1733   19.3121   19.1802 C   0  0  0  0  0  0  0  0  0  0  0  0
   20.8260   20.1940   19.2166 H   0  0  0  0  0  0  0  0  0  0  0  0
   20.7778   18.4264   19.4110 H   0  0  0  0  0  0  0  0  0  0  0  0
   19.8123   19.2043   18.1492 H   0  0  0  0  0  0  0  0  0  0  0  0
   18.9840   19.4602   20.1562 C   0  0  0  0  0  0  0  0  0  0  0  0
   18.3663   18.5517   20.1278 H   0  0  0  0  0  0  0  0  0  0  0  0
   18.3411   20.2797   19.8058 H   0  0  0  0  0  0  0  0  0  0  0  0
   19.4131   19.7566   21.6137 C   0  0  0  0  0  0  0  0  0  0  0  0
   20.0298   20.6656   21.6362 H   0  0  0  0  0  0  0  0  0  0  0  0
   18.5083   19.9814   22.1922 H   0  0  0  0  0  0  0  0  0  0  0  0
   20.1808   18.5865   22.2803 C   0  0  0  0  0  0  0  0  0  0  0  0
   21.0791   18.3607   21.6915 H   0  0  0  0  0  0  0  0  0  0  0  0
   19.5634   17.6779   22.2622 H   0  0  0  0  0  0  0  0  0  0  0  0
   20.6277   18.8823   23.7337 C   0  0  0  0  0  0  0  0  0  0  0  0
   21.3057   18.0774   24.0449 H   0  0  0  0  0  0  0  0  0  0  0  0
   21.2169   19.8094   23.7559 H   0  0  0  0  0  0  0  0  0  0  0  0
   19.4502   18.9840   24.7384 C   0  0  0  0  0  0  0  0  0  0  0  0
   18.8694   18.0523   24.7244 H   0  0  0  0  0  0  0  0  0  0  0  0
   18.7698   19.7803   24.4143 H   0  0  0  0  0  0  0  0  0  0  0  0
   19.8928   19.2982   26.1862 C   0  0  2  0  0  0  0  0  0  0  0  0
   20.5198   20.1949   26.1667 H   0  0  0  0  0  0  0  0  0  0  0  0
   20.7040   18.1487   26.8111 C   0  0  0  0  0  0  0  0  0  0  0  0
   20.1402   17.2078   26.7900 H   0  0  0  0  0  0  0  0  0  0  0  0
   21.6516   17.9941   26.2827 H   0  0  0  0  0  0  0  0  0  0  0  0
   20.9503   18.3737   27.8561 H   0  0  0  0  0  0  0  0  0  0  0  0
   18.7100   19.6275   27.0541 N   0  3  0  0  0  0  0  0  0  0  0  0
   18.1786   20.4203   26.6828 H   0  0  0  0  0  0  0  0  0  0  0  0
   19.0009   19.8744   28.0045 H   0  0  0  0  0  0  0  0  0  0  0  0
   18.0678   18.8338   27.1278 H   0  0  0  0  0  0  0  0  0  0  0  0
  1  2  1  0  0  0  0
  1  3  1  0  0  0  0
  1  4  1  0  0  0  0
  1  5  1  0  0  0  0
  5  6  1  0  0  0  0
  5  7  1  0  0  0  0
  5  8  1  0  0  0  0
  8  9  1  0  0  0  0
  8 10  1  0  0  0  0
  8 11  1  0  0  0  0
 11 12  1  0  0  0  0
 11 13  1  0  0  0  0
 11 14  1  0  0  0  0
 14 15  1  0  0  0  0
 14 16  1  0  0  0  0
 14 17  1  0  0  0  0
 17 18  1  0  0  0  0
 17 19  1  0  0  0  0
 17 20  1  0  0  0  0
 20 21  1  0  0  0  0
 20 22  1  0  0  0  0
 22 23  1  0  0  0  0
 22 24  1  0  0  0  0
 22 25  1  0  0  0  0
 20 26  1  0  0  0  0
 26 27  1  0  0  0  0
 26 28  1  0  0  0  0
 26 29  1  0  0  0  0
M  END
> <VM2 Rank>
49

> <Conf_Id>
214

> <Probability>
0.48

> <Sum Probability>
91.50

> <Delta G>
1.844

> <G>
35.546

> <E>
-1.907

> <-TS>
37.453

> <U+W>
-26.051

> <U>
26.145

> <W>
-52.196

> <W(PB)>
-54.704

> <W(SA)>
2.508

> <Valence>
4.933

> <Coulomb>
19.671

> <VdW>
1.541

> <VdW6>
-9.288

> <VdW12>
10.829

> <Bond>
0.296

> <Angle>
1.773

> <Pdih>
2.865

> <Idih>
0.000

> <Tether>
0.000

$$$$
VeraChem MOL file


 29 28  0  0  0  0  0  0  0  0999 V2000     
   19.0036   20.4706   20.3788 C   0  0  0  0  0  0  0  0  0  0  0  0
   19.2366   21.0304   21.2931 H   0  0  0  0  0  0  0  0  0  0  0  0
   19.7737   20.6977   19.6302 H   0  0  0  0  0  0  0  0  0  0  0  0
   18.0441   20.8438   19.9981 H   0  0  0  0  0  0  0  0  0  0  0  0
   18.9244   18.9514   20.6502 C   0  0  0  0  0  0  0  0  0  0  0  0
   18.5744   18.4471   19.7387 H   0  0  0  0  0  0  0  0  0  0  0  0
   18.1625   18.7506   21.4151 H   0  0  0  0  0  0  0  0  0  0  0  0
   20.2808   18.3282   21.0681 C   0  0  0  0  0  0  0  0  0  0  0  0
   20.1435   17.2481   21.2148 H   0  0  0  0  0  0  0  0  0  0  0  0
   20.9896   18.4305   20.2349 H   0  0  0  0  0  0  0  0  0  0  0  0
   20.9235   18.9322   22.3434 C   0  0  0  0  0  0  0  0  0  0  0  0
   21.1736   19.9876   22.1720 H   0  0  0  0  0  0  0  0  0  0  0  0
   21.8793   18.4209   22.5231 H   0  0  0  0  0  0  0  0  0  0  0  0
   20.0369   18.8014   23.6048 C   0  0  0  0  0  0  0  0  0  0  0  0
   19.1097   19.3698   23.4611 H   0  0  0  0  0  0  0  0  0  0  0  0
   19.7535   17.7488   23.7346 H   0  0  0  0  0  0  0  0  0  0  0  0
   20.7698   19.3146   24.8716 C   0  0  0  0  0  0  0  0  0  0  0  0
   21.0973   20.3490   24.7040 H   0  0  0  0  0  0  0  0  0  0  0  0
   21.6859   18.7285   25.0234 H   0  0  0  0  0  0  0  0  0  0  0  0
   19.9320   19.2716   26.1714 C   0  0  2  0  0  0  0  0  0  0  0  0
   20.5546   19.6812   26.9729 H   0  0  0  0  0  0  0  0  0  0  0  0
   19.5505   17.8345   26.5669 C   0  0  0  0  0  0  0  0  0  0  0  0
   19.0783   17.8219   27.5569 H   0  0  0  0  0  0  0  0  0  0  0  0
   18.8450   17.3913   25.8540 H   0  0  0  0  0  0  0  0  0  0  0  0
   20.4400   17.1941   26.6145 H   0  0  0  0  0  0  0  0  0  0  0  0
   18.7144   20.1514   26.0990 N   0  3  0  0  0  0  0  0  0  0  0  0
   18.0658   19.8285   25.3769 H   0  0  0  0  0  0  0  0  0  0  0  0
   18.9640   21.1201   25.8797 H   0  0  0  0  0  0  0  0  0  0  0  0
   18.2060   20.1599   26.9878 H   0  0  0  0  0  0  0  0  0  0  0  0
  1  2  1  0  0  0  0
  1  3  1  0  0  0  0
  1  4  1  0  0  0  0
  1  5  1  0  0  0  0
  5  6  1  0  0  0  0
  5  7  1  0  0  0  0
  5  8  1  0  0  0  0
  8  9  1  0  0  0  0
  8 10  1  0  0  0  0
  8 11  1  0  0  0  0
 11 12  1  0  0  0  0
 11 13  1  0  0  0  0
 11 14  1  0  0  0  0
 14 15  1  0  0  0  0
 14 16  1  0  0  0  0
 14 17  1  0  0  0  0
 17 18  1  0  0  0  0
 17 19  1  0  0  0  0
 17 20  1  0  0  0  0
 20 21  1  0  0  0  0
 20 22  1  0  0  0  0
 22 23  1  0  0  0  0
 22 24  1  0  0  0  0
 22 25  1  0  0  0  0
 20 26  1  0  0  0  0
 26 27  1  0  0  0  0
 26 28  1  0  0  0  0
 26 29  1  0  0  0  0
M  END
> <VM2 Rank>
50

> <Conf_Id>
572

> <Probability>
0.48

> <Sum Probability>
91.98

> <Delta G>
1.848

> <G>
35.550

> <E>
-2.421

> <-TS>
37.971

> <U+W>
-26.566

> <U>
25.998

> <W>
-52.564

> <W(PB)>
-55.004

> <W(SA)>
2.440

> <Valence>
4.627

> <Coulomb>
20.145

> <VdW>
1.225

> <VdW6>
-10.242

> <VdW12>
11.467

> <Bond>
0.303

> <Angle>
1.847

> <Pdih>
2.477

> <Idih>
0.000

> <Tether>
0.000

$$$$
VeraChem MOL file


 29 28  0  0  0  0  0  0  0  0999 V2000     
   20.8959   19.0187   19.7978 C   0  0  0  0  0  0  0  0  0  0  0  0
   20.7685   18.2711   19.0042 H   0  0  0  0  0  0  0  0  0  0  0  0
   20.9495   20.0074   19.3238 H   0  0  0  0  0  0  0  0  0  0  0  0
   21.8561   18.8243   20.2933 H   0  0  0  0  0  0  0  0  0  0  0  0
   19.7286   18.9484   20.8048 C   0  0  0  0  0  0  0  0  0  0  0  0
   19.6826   17.9359   21.2273 H   0  0  0  0  0  0  0  0  0  0  0  0
   18.7800   19.1165   20.2762 H   0  0  0  0  0  0  0  0  0  0  0  0
   19.8877   19.9918   21.9354 C   0  0  0  0  0  0  0  0  0  0  0  0
   20.8202   19.8052   22.4842 H   0  0  0  0  0  0  0  0  0  0  0  0
   19.9963   20.9889   21.4868 H   0  0  0  0  0  0  0  0  0  0  0  0
   18.6894   20.0271   22.9185 C   0  0  0  0  0  0  0  0  0  0  0  0
   17.7844   20.3127   22.3648 H   0  0  0  0  0  0  0  0  0  0  0  0
   18.8546   20.8316   23.6474 H   0  0  0  0  0  0  0  0  0  0  0  0
   18.4117   18.6977   23.6710 C   0  0  0  0  0  0  0  0  0  0  0  0
   17.5635   18.8484   24.3521 H   0  0  0  0  0  0  0  0  0  0  0  0
   18.0750   17.9361   22.9552 H   0  0  0  0  0  0  0  0  0  0  0  0
   19.6189   18.1375   24.4692 C   0  0  0  0  0  0  0  0  0  0  0  0
   20.4013   17.8251   23.7657 H   0  0  0  0  0  0  0  0  0  0  0  0
   19.3069   17.2259   24.9958 H   0  0  0  0  0  0  0  0  0  0  0  0
   20.2190   19.1347   25.4845 C   0  0  2  0  0  0  0  0  0  0  0  0
   20.5210   20.0364   24.9435 H   0  0  0  0  0  0  0  0  0  0  0  0
   21.4666   18.5346   26.1515 C   0  0  0  0  0  0  0  0  0  0  0  0
   21.2181   17.6253   26.7131 H   0  0  0  0  0  0  0  0  0  0  0  0
   22.2236   18.2764   25.4005 H   0  0  0  0  0  0  0  0  0  0  0  0
   21.9187   19.2529   26.8465 H   0  0  0  0  0  0  0  0  0  0  0  0
   19.2183   19.5656   26.5213 N   0  3  0  0  0  0  0  0  0  0  0  0
   18.8930   18.7706   27.0776 H   0  0  0  0  0  0  0  0  0  0  0  0
   18.3969   19.9955   26.0874 H   0  0  0  0  0  0  0  0  0  0  0  0
   19.6197   20.2501   27.1684 H   0  0  0  0  0  0  0  0  0  0  0  0
  1  2  1  0  0  0  0
  1  3  1  0  0  0  0
  1  4  1  0  0  0  0
  1  5  1  0  0  0  0
  5  6  1  0  0  0  0
  5  7  1  0  0  0  0
  5  8  1  0  0  0  0
  8  9  1  0  0  0  0
  8 10  1  0  0  0  0
  8 11  1  0  0  0  0
 11 12  1  0  0  0  0
 11 13  1  0  0  0  0
 11 14  1  0  0  0  0
 14 15  1  0  0  0  0
 14 16  1  0  0  0  0
 14 17  1  0  0  0  0
 17 18  1  0  0  0  0
 17 19  1  0  0  0  0
 17 20  1  0  0  0  0
 20 21  1  0  0  0  0
 20 22  1  0  0  0  0
 22 23  1  0  0  0  0
 22 24  1  0  0  0  0
 22 25  1  0  0  0  0
 20 26  1  0  0  0  0
 26 27  1  0  0  0  0
 26 28  1  0  0  0  0
 26 29  1  0  0  0  0
M  END
> <VM2 Rank>
51

> <Conf_Id>
349

> <Probability>
0.45

> <Sum Probability>
92.43

> <Delta G>
1.886

> <G>
35.588

> <E>
-2.609

> <-TS>
38.197

> <U+W>
-26.754

> <U>
25.507

> <W>
-52.261

> <W(PB)>
-54.689

> <W(SA)>
2.428

> <Valence>
4.386

> <Coulomb>
20.418

> <VdW>
0.703

> <VdW6>
-10.963

> <VdW12>
11.666

> <Bond>
0.307

> <Angle>
1.748

> <Pdih>
2.331

> <Idih>
0.000

> <Tether>
0.000

$$$$
VeraChem MOL file


 29 28  0  0  0  0  0  0  0  0999 V2000     
   20.6065   19.2826   19.5166 C   0  0  0  0  0  0  0  0  0  0  0  0
   21.3970   19.9694   19.8459 H   0  0  0  0  0  0  0  0  0  0  0  0
   20.8961   18.2632   19.8004 H   0  0  0  0  0  0  0  0  0  0  0  0
   20.5636   19.3207   18.4204 H   0  0  0  0  0  0  0  0  0  0  0  0
   19.2411   19.6744   20.1254 C   0  0  0  0  0  0  0  0  0  0  0  0
   18.4731   18.9580   19.8019 H   0  0  0  0  0  0  0  0  0  0  0  0
   18.9399   20.6512   19.7219 H   0  0  0  0  0  0  0  0  0  0  0  0
   19.2607   19.7591   21.6706 C   0  0  0  0  0  0  0  0  0  0  0  0
   20.0096   20.5003   21.9784 H   0  0  0  0  0  0  0  0  0  0  0  0
   18.2877   20.1384   22.0118 H   0  0  0  0  0  0  0  0  0  0  0  0
   19.5432   18.3980   22.3554 C   0  0  0  0  0  0  0  0  0  0  0  0
   20.5637   18.0647   22.1248 H   0  0  0  0  0  0  0  0  0  0  0  0
   18.8675   17.6403   21.9354 H   0  0  0  0  0  0  0  0  0  0  0  0
   19.3521   18.4274   23.8917 C   0  0  0  0  0  0  0  0  0  0  0  0
   18.3258   18.7425   24.1219 H   0  0  0  0  0  0  0  0  0  0  0  0
   19.4521   17.3996   24.2636 H   0  0  0  0  0  0  0  0  0  0  0  0
   20.3708   19.3463   24.6201 C   0  0  0  0  0  0  0  0  0  0  0  0
   20.2507   20.3786   24.2696 H   0  0  0  0  0  0  0  0  0  0  0  0
   21.3910   19.0490   24.3440 H   0  0  0  0  0  0  0  0  0  0  0  0
   20.2542   19.3522   26.1628 C   0  0  2  0  0  0  0  0  0  0  0  0
   20.9838   20.0754   26.5403 H   0  0  0  0  0  0  0  0  0  0  0  0
   20.5981   17.9840   26.7771 C   0  0  0  0  0  0  0  0  0  0  0  0
   20.6464   18.0567   27.8705 H   0  0  0  0  0  0  0  0  0  0  0  0
   19.8480   17.2250   26.5258 H   0  0  0  0  0  0  0  0  0  0  0  0
   21.5756   17.6325   26.4241 H   0  0  0  0  0  0  0  0  0  0  0  0
   18.9093   19.8320   26.6344 N   0  3  0  0  0  0  0  0  0  0  0  0
   18.8693   19.8884   27.6561 H   0  0  0  0  0  0  0  0  0  0  0  0
   18.1636   19.2002   26.3321 H   0  0  0  0  0  0  0  0  0  0  0  0
   18.6930   20.7632   26.2673 H   0  0  0  0  0  0  0  0  0  0  0  0
  1  2  1  0  0  0  0
  1  3  1  0  0  0  0
  1  4  1  0  0  0  0
  1  5  1  0  0  0  0
  5  6  1  0  0  0  0
  5  7  1  0  0  0  0
  5  8  1  0  0  0  0
  8  9  1  0  0  0  0
  8 10  1  0  0  0  0
  8 11  1  0  0  0  0
 11 12  1  0  0  0  0
 11 13  1  0  0  0  0
 11 14  1  0  0  0  0
 14 15  1  0  0  0  0
 14 16  1  0  0  0  0
 14 17  1  0  0  0  0
 17 18  1  0  0  0  0
 17 19  1  0  0  0  0
 17 20  1  0  0  0  0
 20 21  1  0  0  0  0
 20 22  1  0  0  0  0
 22 23  1  0  0  0  0
 22 24  1  0  0  0  0
 22 25  1  0  0  0  0
 20 26  1  0  0  0  0
 26 27  1  0  0  0  0
 26 28  1  0  0  0  0
 26 29  1  0  0  0  0
M  END
> <VM2 Rank>
52

> <Conf_Id>
501

> <Probability>
0.45

> <Sum Probability>
92.88

> <Delta G>
1.891

> <G>
35.593

> <E>
-2.141

> <-TS>
37.735

> <U+W>
-26.286

> <U>
25.995

> <W>
-52.281

> <W(PB)>
-54.747

> <W(SA)>
2.466

> <Valence>
4.756

> <Coulomb>
19.829

> <VdW>
1.410

> <VdW6>
-9.885

> <VdW12>
11.295

> <Bond>
0.310

> <Angle>
1.687

> <Pdih>
2.759

> <Idih>
0.000

> <Tether>
0.000

$$$$
VeraChem MOL file


 29 28  0  0  0  0  0  0  0  0999 V2000     
   20.1779   20.3231   20.0796 C   0  0  0  0  0  0  0  0  0  0  0  0
   21.0335   20.8938   19.6960 H   0  0  0  0  0  0  0  0  0  0  0  0
   19.5747   20.0028   19.2203 H   0  0  0  0  0  0  0  0  0  0  0  0
   19.5722   21.0046   20.6898 H   0  0  0  0  0  0  0  0  0  0  0  0
   20.6624   19.1073   20.9011 C   0  0  0  0  0  0  0  0  0  0  0  0
   21.2531   19.4519   21.7604 H   0  0  0  0  0  0  0  0  0  0  0  0
   21.3493   18.5133   20.2823 H   0  0  0  0  0  0  0  0  0  0  0  0
   19.5082   18.1898   21.3781 C   0  0  0  0  0  0  0  0  0  0  0  0
   18.9972   17.7777   20.4971 H   0  0  0  0  0  0  0  0  0  0  0  0
   19.9336   17.3233   21.9013 H   0  0  0  0  0  0  0  0  0  0  0  0
   18.4513   18.8748   22.2861 C   0  0  0  0  0  0  0  0  0  0  0  0
   17.7064   18.1245   22.5847 H   0  0  0  0  0  0  0  0  0  0  0  0
   17.8986   19.6193   21.6977 H   0  0  0  0  0  0  0  0  0  0  0  0
   19.0115   19.5597   23.5595 C   0  0  0  0  0  0  0  0  0  0  0  0
   19.6858   20.3793   23.2775 H   0  0  0  0  0  0  0  0  0  0  0  0
   18.1706   20.0275   24.0878 H   0  0  0  0  0  0  0  0  0  0  0  0
   19.7449   18.5831   24.5142 C   0  0  0  0  0  0  0  0  0  0  0  0
   20.5940   18.1312   23.9867 H   0  0  0  0  0  0  0  0  0  0  0  0
   19.0729   17.7605   24.7924 H   0  0  0  0  0  0  0  0  0  0  0  0
   20.2766   19.2737   25.7888 C   0  0  2  0  0  0  0  0  0  0  0  0
   20.9129   20.1107   25.4854 H   0  0  0  0  0  0  0  0  0  0  0  0
   21.1282   18.2937   26.6115 C   0  0  0  0  0  0  0  0  0  0  0  0
   20.5342   17.4323   26.9419 H   0  0  0  0  0  0  0  0  0  0  0  0
   21.9731   17.9194   26.0200 H   0  0  0  0  0  0  0  0  0  0  0  0
   21.5382   18.7877   27.5011 H   0  0  0  0  0  0  0  0  0  0  0  0
   19.1749   19.8508   26.6350 N   0  3  0  0  0  0  0  0  0  0  0  0
   19.5476   20.3196   27.4656 H   0  0  0  0  0  0  0  0  0  0  0  0
   18.5314   19.1226   26.9563 H   0  0  0  0  0  0  0  0  0  0  0  0
   18.6258   20.5402   26.1146 H   0  0  0  0  0  0  0  0  0  0  0  0
  1  2  1  0  0  0  0
  1  3  1  0  0  0  0
  1  4  1  0  0  0  0
  1  5  1  0  0  0  0
  5  6  1  0  0  0  0
  5  7  1  0  0  0  0
  5  8  1  0  0  0  0
  8  9  1  0  0  0  0
  8 10  1  0  0  0  0
  8 11  1  0  0  0  0
 11 12  1  0  0  0  0
 11 13  1  0  0  0  0
 11 14  1  0  0  0  0
 14 15  1  0  0  0  0
 14 16  1  0  0  0  0
 14 17  1  0  0  0  0
 17 18  1  0  0  0  0
 17 19  1  0  0  0  0
 17 20  1  0  0  0  0
 20 21  1  0  0  0  0
 20 22  1  0  0  0  0
 22 23  1  0  0  0  0
 22 24  1  0  0  0  0
 22 25  1  0  0  0  0
 20 26  1  0  0  0  0
 26 27  1  0  0  0  0
 26 28  1  0  0  0  0
 26 29  1  0  0  0  0
M  END
> <VM2 Rank>
53

> <Conf_Id>
193

> <Probability>
0.44

> <Sum Probability>
93.32

> <Delta G>
1.898

> <G>
35.600

> <E>
-2.555

> <-TS>
38.155

> <U+W>
-26.700

> <U>
25.696

> <W>
-52.396

> <W(PB)>
-54.863

> <W(SA)>
2.468

> <Valence>
4.599

> <Coulomb>
20.006

> <VdW>
1.091

> <VdW6>
-10.568

> <VdW12>
11.659

> <Bond>
0.319

> <Angle>
1.895

> <Pdih>
2.384

> <Idih>
0.000

> <Tether>
0.000

$$$$
VeraChem MOL file


 29 28  0  0  0  0  0  0  0  0999 V2000     
   19.6874   19.9151   19.6069 C   0  0  0  0  0  0  0  0  0  0  0  0
   19.2548   18.9992   19.1838 H   0  0  0  0  0  0  0  0  0  0  0  0
   18.8683   20.5442   19.9762 H   0  0  0  0  0  0  0  0  0  0  0  0
   20.1799   20.4611   18.7919 H   0  0  0  0  0  0  0  0  0  0  0  0
   20.7011   19.5853   20.7260 C   0  0  0  0  0  0  0  0  0  0  0  0
   21.0930   20.5172   21.1570 H   0  0  0  0  0  0  0  0  0  0  0  0
   21.5617   19.0673   20.2803 H   0  0  0  0  0  0  0  0  0  0  0  0
   20.1147   18.6951   21.8483 C   0  0  0  0  0  0  0  0  0  0  0  0
   19.7279   17.7634   21.4134 H   0  0  0  0  0  0  0  0  0  0  0  0
   20.9370   18.4082   22.5163 H   0  0  0  0  0  0  0  0  0  0  0  0
   18.9998   19.3920   22.6686 C   0  0  0  0  0  0  0  0  0  0  0  0
   18.1794   19.6791   21.9984 H   0  0  0  0  0  0  0  0  0  0  0  0
   19.3847   20.3278   23.0945 H   0  0  0  0  0  0  0  0  0  0  0  0
   18.4065   18.4996   23.7898 C   0  0  0  0  0  0  0  0  0  0  0  0
   17.5891   19.0447   24.2807 H   0  0  0  0  0  0  0  0  0  0  0  0
   17.9396   17.6159   23.3335 H   0  0  0  0  0  0  0  0  0  0  0  0
   19.4243   18.0274   24.8624 C   0  0  0  0  0  0  0  0  0  0  0  0
   20.1271   17.3188   24.4060 H   0  0  0  0  0  0  0  0  0  0  0  0
   18.8891   17.4607   25.6359 H   0  0  0  0  0  0  0  0  0  0  0  0
   20.2186   19.1735   25.5268 C   0  0  2  0  0  0  0  0  0  0  0  0
   20.7474   19.7246   24.7434 H   0  0  0  0  0  0  0  0  0  0  0  0
   21.2618   18.6073   26.5028 C   0  0  0  0  0  0  0  0  0  0  0  0
   21.9553   17.9338   25.9839 H   0  0  0  0  0  0  0  0  0  0  0  0
   21.8542   19.4153   26.9495 H   0  0  0  0  0  0  0  0  0  0  0  0
   20.7826   18.0456   27.3144 H   0  0  0  0  0  0  0  0  0  0  0  0
   19.3219   20.1606   26.2223 N   0  3  0  0  0  0  0  0  0  0  0  0
   19.8580   20.9320   26.6299 H   0  0  0  0  0  0  0  0  0  0  0  0
   18.7971   19.7168   26.9805 H   0  0  0  0  0  0  0  0  0  0  0  0
   18.6426   20.5658   25.5726 H   0  0  0  0  0  0  0  0  0  0  0  0
  1  2  1  0  0  0  0
  1  3  1  0  0  0  0
  1  4  1  0  0  0  0
  1  5  1  0  0  0  0
  5  6  1  0  0  0  0
  5  7  1  0  0  0  0
  5  8  1  0  0  0  0
  8  9  1  0  0  0  0
  8 10  1  0  0  0  0
  8 11  1  0  0  0  0
 11 12  1  0  0  0  0
 11 13  1  0  0  0  0
 11 14  1  0  0  0  0
 14 15  1  0  0  0  0
 14 16  1  0  0  0  0
 14 17  1  0  0  0  0
 17 18  1  0  0  0  0
 17 19  1  0  0  0  0
 17 20  1  0  0  0  0
 20 21  1  0  0  0  0
 20 22  1  0  0  0  0
 22 23  1  0  0  0  0
 22 24  1  0  0  0  0
 22 25  1  0  0  0  0
 20 26  1  0  0  0  0
 26 27  1  0  0  0  0
 26 28  1  0  0  0  0
 26 29  1  0  0  0  0
M  END
> <VM2 Rank>
54

> <Conf_Id>
478

> <Probability>
0.43

> <Sum Probability>
93.75

> <Delta G>
1.915

> <G>
35.617

> <E>
-2.321

> <-TS>
37.938

> <U+W>
-26.465

> <U>
25.816

> <W>
-52.282

> <W(PB)>
-54.728

> <W(SA)>
2.446

> <Valence>
4.503

> <Coulomb>
20.342

> <VdW>
0.971

> <VdW6>
-10.532

> <VdW12>
11.504

> <Bond>
0.307

> <Angle>
1.715

> <Pdih>
2.481

> <Idih>
0.000

> <Tether>
0.000

$$$$
VeraChem MOL file


 29 28  0  0  0  0  0  0  0  0999 V2000     
   19.1550   19.0734   19.2955 C   0  0  0  0  0  0  0  0  0  0  0  0
   18.9945   17.9875   19.3099 H   0  0  0  0  0  0  0  0  0  0  0  0
   18.2438   19.5611   19.6632 H   0  0  0  0  0  0  0  0  0  0  0  0
   19.2924   19.3784   18.2501 H   0  0  0  0  0  0  0  0  0  0  0  0
   20.3899   19.4640   20.1389 C   0  0  0  0  0  0  0  0  0  0  0  0
   20.5086   20.5565   20.1378 H   0  0  0  0  0  0  0  0  0  0  0  0
   21.2892   19.0568   19.6558 H   0  0  0  0  0  0  0  0  0  0  0  0
   20.3328   18.9447   21.5960 C   0  0  0  0  0  0  0  0  0  0  0  0
   20.2149   17.8525   21.5915 H   0  0  0  0  0  0  0  0  0  0  0  0
   21.3029   19.1502   22.0662 H   0  0  0  0  0  0  0  0  0  0  0  0
   19.2019   19.5902   22.4367 C   0  0  0  0  0  0  0  0  0  0  0  0
   18.2339   19.3905   21.9595 H   0  0  0  0  0  0  0  0  0  0  0  0
   19.3228   20.6821   22.4453 H   0  0  0  0  0  0  0  0  0  0  0  0
   19.1340   19.0634   23.8915 C   0  0  0  0  0  0  0  0  0  0  0  0
   18.2274   19.4701   24.3583 H   0  0  0  0  0  0  0  0  0  0  0  0
   19.0104   17.9725   23.8723 H   0  0  0  0  0  0  0  0  0  0  0  0
   20.3727   19.4470   24.7465 C   0  0  0  0  0  0  0  0  0  0  0  0
   20.5500   20.5272   24.6624 H   0  0  0  0  0  0  0  0  0  0  0  0
   21.2680   18.9595   24.3413 H   0  0  0  0  0  0  0  0  0  0  0  0
   20.2631   19.0841   26.2463 C   0  0  2  0  0  0  0  0  0  0  0  0
   21.1890   19.4123   26.7288 H   0  0  0  0  0  0  0  0  0  0  0  0
   20.1364   17.5664   26.4653 C   0  0  0  0  0  0  0  0  0  0  0  0
   20.9493   17.0305   25.9598 H   0  0  0  0  0  0  0  0  0  0  0  0
   20.1941   17.3269   27.5342 H   0  0  0  0  0  0  0  0  0  0  0  0
   19.1824   17.1807   26.0865 H   0  0  0  0  0  0  0  0  0  0  0  0
   19.1501   19.8229   26.9372 N   0  3  0  0  0  0  0  0  0  0  0  0
   18.2378   19.5623   26.5547 H   0  0  0  0  0  0  0  0  0  0  0  0
   19.2508   20.8366   26.8324 H   0  0  0  0  0  0  0  0  0  0  0  0
   19.1322   19.6190   27.9406 H   0  0  0  0  0  0  0  0  0  0  0  0
  1  2  1  0  0  0  0
  1  3  1  0  0  0  0
  1  4  1  0  0  0  0
  1  5  1  0  0  0  0
  5  6  1  0  0  0  0
  5  7  1  0  0  0  0
  5  8  1  0  0  0  0
  8  9  1  0  0  0  0
  8 10  1  0  0  0  0
  8 11  1  0  0  0  0
 11 12  1  0  0  0  0
 11 13  1  0  0  0  0
 11 14  1  0  0  0  0
 14 15  1  0  0  0  0
 14 16  1  0  0  0  0
 14 17  1  0  0  0  0
 17 18  1  0  0  0  0
 17 19  1  0  0  0  0
 17 20  1  0  0  0  0
 20 21  1  0  0  0  0
 20 22  1  0  0  0  0
 22 23  1  0  0  0  0
 22 24  1  0  0  0  0
 22 25  1  0  0  0  0
 20 26  1  0  0  0  0
 26 27  1  0  0  0  0
 26 28  1  0  0  0  0
 26 29  1  0  0  0  0
M  END
> <VM2 Rank>
55

> <Conf_Id>
667

> <Probability>
0.42

> <Sum Probability>
94.16

> <Delta G>
1.935

> <G>
35.637

> <E>
-2.058

> <-TS>
37.695

> <U+W>
-26.203

> <U>
25.894

> <W>
-52.097

> <W(PB)>
-54.600

> <W(SA)>
2.503

> <Valence>
4.780

> <Coulomb>
19.659

> <VdW>
1.456

> <VdW6>
-9.843

> <VdW12>
11.299

> <Bond>
0.315

> <Angle>
1.725

> <Pdih>
2.740

> <Idih>
0.000

> <Tether>
0.000

$$$$
VeraChem MOL file


 29 28  0  0  0  0  0  0  0  0999 V2000     
   18.8950   20.2136   20.2478 C   0  0  0  0  0  0  0  0  0  0  0  0
   19.3803   21.0224   20.8081 H   0  0  0  0  0  0  0  0  0  0  0  0
   19.4547   20.0563   19.3167 H   0  0  0  0  0  0  0  0  0  0  0  0
   17.8865   20.5546   19.9806 H   0  0  0  0  0  0  0  0  0  0  0  0
   18.8243   18.9127   21.0788 C   0  0  0  0  0  0  0  0  0  0  0  0
   18.2376   18.1688   20.5222 H   0  0  0  0  0  0  0  0  0  0  0  0
   18.2712   19.0969   22.0094 H   0  0  0  0  0  0  0  0  0  0  0  0
   20.2164   18.3087   21.3936 C   0  0  0  0  0  0  0  0  0  0  0  0
   20.0806   17.3633   21.9354 H   0  0  0  0  0  0  0  0  0  0  0  0
   20.7064   18.0379   20.4484 H   0  0  0  0  0  0  0  0  0  0  0  0
   21.1707   19.2319   22.1982 C   0  0  0  0  0  0  0  0  0  0  0  0
   21.4456   20.0967   21.5796 H   0  0  0  0  0  0  0  0  0  0  0  0
   22.1094   18.6915   22.3816 H   0  0  0  0  0  0  0  0  0  0  0  0
   20.6114   19.7405   23.5515 C   0  0  0  0  0  0  0  0  0  0  0  0
   21.3668   20.3891   24.0164 H   0  0  0  0  0  0  0  0  0  0  0  0
   19.7350   20.3756   23.3706 H   0  0  0  0  0  0  0  0  0  0  0  0
   20.2534   18.5984   24.5362 C   0  0  0  0  0  0  0  0  0  0  0  0
   21.1186   17.9291   24.6325 H   0  0  0  0  0  0  0  0  0  0  0  0
   19.4313   17.9943   24.1319 H   0  0  0  0  0  0  0  0  0  0  0  0
   19.8644   19.1158   25.9376 C   0  0  2  0  0  0  0  0  0  0  0  0
   20.6869   19.7301   26.3169 H   0  0  0  0  0  0  0  0  0  0  0  0
   19.6556   17.9385   26.9033 C   0  0  0  0  0  0  0  0  0  0  0  0
   19.4149   18.3005   27.9104 H   0  0  0  0  0  0  0  0  0  0  0  0
   18.8363   17.2904   26.5679 H   0  0  0  0  0  0  0  0  0  0  0  0
   20.5650   17.3292   26.9773 H   0  0  0  0  0  0  0  0  0  0  0  0
   18.6448   19.9958   25.9070 N   0  3  0  0  0  0  0  0  0  0  0  0
   18.4148   20.3482   26.8405 H   0  0  0  0  0  0  0  0  0  0  0  0
   17.8269   19.4874   25.5607 H   0  0  0  0  0  0  0  0  0  0  0  0
   18.7853   20.8072   25.2990 H   0  0  0  0  0  0  0  0  0  0  0  0
  1  2  1  0  0  0  0
  1  3  1  0  0  0  0
  1  4  1  0  0  0  0
  1  5  1  0  0  0  0
  5  6  1  0  0  0  0
  5  7  1  0  0  0  0
  5  8  1  0  0  0  0
  8  9  1  0  0  0  0
  8 10  1  0  0  0  0
  8 11  1  0  0  0  0
 11 12  1  0  0  0  0
 11 13  1  0  0  0  0
 11 14  1  0  0  0  0
 14 15  1  0  0  0  0
 14 16  1  0  0  0  0
 14 17  1  0  0  0  0
 17 18  1  0  0  0  0
 17 19  1  0  0  0  0
 17 20  1  0  0  0  0
 20 21  1  0  0  0  0
 20 22  1  0  0  0  0
 22 23  1  0  0  0  0
 22 24  1  0  0  0  0
 22 25  1  0  0  0  0
 20 26  1  0  0  0  0
 26 27  1  0  0  0  0
 26 28  1  0  0  0  0
 26 29  1  0  0  0  0
M  END
> <VM2 Rank>
56

> <Conf_Id>
512

> <Probability>
0.39

> <Sum Probability>
94.56

> <Delta G>
1.971

> <G>
35.673

> <E>
-2.498

> <-TS>
38.172

> <U+W>
-26.643

> <U>
26.016

> <W>
-52.659

> <W(PB)>
-55.102

> <W(SA)>
2.443

> <Valence>
4.552

> <Coulomb>
20.496

> <VdW>
0.968

> <VdW6>
-10.659

> <VdW12>
11.627

> <Bond>
0.311

> <Angle>
1.812

> <Pdih>
2.428

> <Idih>
0.000

> <Tether>
0.000

$$$$
VeraChem MOL file


 29 28  0  0  0  0  0  0  0  0999 V2000     
   19.0903   19.1739   19.3073 C   0  0  0  0  0  0  0  0  0  0  0  0
   18.8424   18.1375   19.5672 H   0  0  0  0  0  0  0  0  0  0  0  0
   18.1921   19.7890   19.4485 H   0  0  0  0  0  0  0  0  0  0  0  0
   19.3458   19.1934   18.2400 H   0  0  0  0  0  0  0  0  0  0  0  0
   20.2680   19.7073   20.1544 C   0  0  0  0  0  0  0  0  0  0  0  0
   20.5598   20.6944   19.7694 H   0  0  0  0  0  0  0  0  0  0  0  0
   21.1432   19.0557   20.0236 H   0  0  0  0  0  0  0  0  0  0  0  0
   19.9356   19.8421   21.6602 C   0  0  0  0  0  0  0  0  0  0  0  0
   20.7758   20.3531   22.1468 H   0  0  0  0  0  0  0  0  0  0  0  0
   19.0607   20.4947   21.7852 H   0  0  0  0  0  0  0  0  0  0  0  0
   19.6788   18.4824   22.3588 C   0  0  0  0  0  0  0  0  0  0  0  0
   20.5549   17.8307   22.2375 H   0  0  0  0  0  0  0  0  0  0  0  0
   18.8433   17.9716   21.8632 H   0  0  0  0  0  0  0  0  0  0  0  0
   19.3322   18.6125   23.8627 C   0  0  0  0  0  0  0  0  0  0  0  0
   18.4652   19.2766   23.9771 H   0  0  0  0  0  0  0  0  0  0  0  0
   19.0155   17.6246   24.2206 H   0  0  0  0  0  0  0  0  0  0  0  0
   20.5167   19.1219   24.7293 C   0  0  0  0  0  0  0  0  0  0  0  0
   20.8124   20.1243   24.3976 H   0  0  0  0  0  0  0  0  0  0  0  0
   21.3907   18.4778   24.5654 H   0  0  0  0  0  0  0  0  0  0  0  0
   20.2282   19.1923   26.2476 C   0  0  2  0  0  0  0  0  0  0  0  0
   21.1156   19.6175   26.7267 H   0  0  0  0  0  0  0  0  0  0  0  0
   19.9936   17.8005   26.8605 C   0  0  0  0  0  0  0  0  0  0  0  0
   19.9356   17.8687   27.9538 H   0  0  0  0  0  0  0  0  0  0  0  0
   19.0593   17.3511   26.5042 H   0  0  0  0  0  0  0  0  0  0  0  0
   20.8188   17.1212   26.6134 H   0  0  0  0  0  0  0  0  0  0  0  0
   19.0926   20.1230   26.5731 N   0  3  0  0  0  0  0  0  0  0  0  0
   18.9547   20.2056   27.5844 H   0  0  0  0  0  0  0  0  0  0  0  0
   18.2136   19.7902   26.1692 H   0  0  0  0  0  0  0  0  0  0  0  0
   19.2631   21.0647   26.2089 H   0  0  0  0  0  0  0  0  0  0  0  0
  1  2  1  0  0  0  0
  1  3  1  0  0  0  0
  1  4  1  0  0  0  0
  1  5  1  0  0  0  0
  5  6  1  0  0  0  0
  5  7  1  0  0  0  0
  5  8  1  0  0  0  0
  8  9  1  0  0  0  0
  8 10  1  0  0  0  0
  8 11  1  0  0  0  0
 11 12  1  0  0  0  0
 11 13  1  0  0  0  0
 11 14  1  0  0  0  0
 14 15  1  0  0  0  0
 14 16  1  0  0  0  0
 14 17  1  0  0  0  0
 17 18  1  0  0  0  0
 17 19  1  0  0  0  0
 17 20  1  0  0  0  0
 20 21  1  0  0  0  0
 20 22  1  0  0  0  0
 22 23  1  0  0  0  0
 22 24  1  0  0  0  0
 22 25  1  0  0  0  0
 20 26  1  0  0  0  0
 26 27  1  0  0  0  0
 26 28  1  0  0  0  0
 26 29  1  0  0  0  0
M  END
> <VM2 Rank>
57

> <Conf_Id>
864

> <Probability>
0.39

> <Sum Probability>
94.94

> <Delta G>
1.975

> <G>
35.677

> <E>
-1.953

> <-TS>
37.630

> <U+W>
-26.098

> <U>
26.188

> <W>
-52.286

> <W(PB)>
-54.796

> <W(SA)>
2.510

> <Valence>
4.872

> <Coulomb>
19.830

> <VdW>
1.486

> <VdW6>
-9.786

> <VdW12>
11.273

> <Bond>
0.320

> <Angle>
1.789

> <Pdih>
2.762

> <Idih>
0.000

> <Tether>
0.000

$$$$
VeraChem MOL file


 29 28  0  0  0  0  0  0  0  0999 V2000     
   20.2874   18.5947   19.8205 C   0  0  0  0  0  0  0  0  0  0  0  0
   21.1550   19.1940   19.5152 H   0  0  0  0  0  0  0  0  0  0  0  0
   20.6186   17.8673   20.5722 H   0  0  0  0  0  0  0  0  0  0  0  0
   19.9429   18.0307   18.9442 H   0  0  0  0  0  0  0  0  0  0  0  0
   19.1551   19.4945   20.3648 C   0  0  0  0  0  0  0  0  0  0  0  0
   18.3078   18.8727   20.6829 H   0  0  0  0  0  0  0  0  0  0  0  0
   18.7759   20.1202   19.5448 H   0  0  0  0  0  0  0  0  0  0  0  0
   19.6060   20.4209   21.5228 C   0  0  0  0  0  0  0  0  0  0  0  0
   20.3623   21.1206   21.1412 H   0  0  0  0  0  0  0  0  0  0  0  0
   18.7532   21.0406   21.8325 H   0  0  0  0  0  0  0  0  0  0  0  0
   20.1831   19.6987   22.7678 C   0  0  0  0  0  0  0  0  0  0  0  0
   20.4903   20.4669   23.4891 H   0  0  0  0  0  0  0  0  0  0  0  0
   21.0987   19.1575   22.4950 H   0  0  0  0  0  0  0  0  0  0  0  0
   19.1803   18.7264   23.4392 C   0  0  0  0  0  0  0  0  0  0  0  0
   18.2546   19.2609   23.6902 H   0  0  0  0  0  0  0  0  0  0  0  0
   18.8958   17.9438   22.7240 H   0  0  0  0  0  0  0  0  0  0  0  0
   19.7538   18.0330   24.7017 C   0  0  0  0  0  0  0  0  0  0  0  0
   20.6254   17.4324   24.4091 H   0  0  0  0  0  0  0  0  0  0  0  0
   19.0095   17.3242   25.0884 H   0  0  0  0  0  0  0  0  0  0  0  0
   20.1673   19.0037   25.8307 C   0  0  2  0  0  0  0  0  0  0  0  0
   20.9283   19.6850   25.4392 H   0  0  0  0  0  0  0  0  0  0  0  0
   20.7809   18.2264   27.0059 C   0  0  0  0  0  0  0  0  0  0  0  0
   21.1130   18.9131   27.7943 H   0  0  0  0  0  0  0  0  0  0  0  0
   20.0552   17.5292   27.4432 H   0  0  0  0  0  0  0  0  0  0  0  0
   21.6543   17.6492   26.6775 H   0  0  0  0  0  0  0  0  0  0  0  0
   19.0220   19.8577   26.3005 N   0  3  0  0  0  0  0  0  0  0  0  0
   18.6304   20.4080   25.5314 H   0  0  0  0  0  0  0  0  0  0  0  0
   19.3175   20.5131   27.0297 H   0  0  0  0  0  0  0  0  0  0  0  0
   18.2663   19.2867   26.6883 H   0  0  0  0  0  0  0  0  0  0  0  0
  1  2  1  0  0  0  0
  1  3  1  0  0  0  0
  1  4  1  0  0  0  0
  1  5  1  0  0  0  0
  5  6  1  0  0  0  0
  5  7  1  0  0  0  0
  5  8  1  0  0  0  0
  8  9  1  0  0  0  0
  8 10  1  0  0  0  0
  8 11  1  0  0  0  0
 11 12  1  0  0  0  0
 11 13  1  0  0  0  0
 11 14  1  0  0  0  0
 14 15  1  0  0  0  0
 14 16  1  0  0  0  0
 14 17  1  0  0  0  0
 17 18  1  0  0  0  0
 17 19  1  0  0  0  0
 17 20  1  0  0  0  0
 20 21  1  0  0  0  0
 20 22  1  0  0  0  0
 22 23  1  0  0  0  0
 22 24  1  0  0  0  0
 22 25  1  0  0  0  0
 20 26  1  0  0  0  0
 26 27  1  0  0  0  0
 26 28  1  0  0  0  0
 26 29  1  0  0  0  0
M  END
> <VM2 Rank>
58

> <Conf_Id>
699

> <Probability>
0.38

> <Sum Probability>
95.32

> <Delta G>
1.988

> <G>
35.690

> <E>
-2.306

> <-TS>
37.996

> <U+W>
-26.451

> <U>
25.812

> <W>
-52.263

> <W(PB)>
-54.731

> <W(SA)>
2.468

> <Valence>
4.469

> <Coulomb>
20.263

> <VdW>
1.081

> <VdW6>
-10.395

> <VdW12>
11.476

> <Bond>
0.305

> <Angle>
1.805

> <Pdih>
2.359

> <Idih>
0.000

> <Tether>
0.000

$$$$
VeraChem MOL file


 29 28  0  0  0  0  0  0  0  0999 V2000     
   21.1729   20.0440   20.7711 C   0  0  0  0  0  0  0  0  0  0  0  0
   20.7886   21.0241   20.4602 H   0  0  0  0  0  0  0  0  0  0  0  0
   21.4398   20.1002   21.8335 H   0  0  0  0  0  0  0  0  0  0  0  0
   22.0953   19.8506   20.2084 H   0  0  0  0  0  0  0  0  0  0  0  0
   20.1339   18.9312   20.5062 C   0  0  0  0  0  0  0  0  0  0  0  0
   20.5322   17.9644   20.8419 H   0  0  0  0  0  0  0  0  0  0  0  0
   19.9881   18.8352   19.4212 H   0  0  0  0  0  0  0  0  0  0  0  0
   18.7580   19.2028   21.1660 C   0  0  0  0  0  0  0  0  0  0  0  0
   18.3288   20.1149   20.7290 H   0  0  0  0  0  0  0  0  0  0  0  0
   18.0701   18.3891   20.8982 H   0  0  0  0  0  0  0  0  0  0  0  0
   18.7830   19.3546   22.7086 C   0  0  0  0  0  0  0  0  0  0  0  0
   17.7607   19.5652   23.0516 H   0  0  0  0  0  0  0  0  0  0  0  0
   19.3813   20.2332   22.9814 H   0  0  0  0  0  0  0  0  0  0  0  0
   19.3118   18.0968   23.4425 C   0  0  0  0  0  0  0  0  0  0  0  0
   18.7577   17.2160   23.0901 H   0  0  0  0  0  0  0  0  0  0  0  0
   20.3623   17.9187   23.1810 H   0  0  0  0  0  0  0  0  0  0  0  0
   19.1651   18.1863   24.9832 C   0  0  0  0  0  0  0  0  0  0  0  0
   19.5428   17.2586   25.4332 H   0  0  0  0  0  0  0  0  0  0  0  0
   18.0955   18.2294   25.2275 H   0  0  0  0  0  0  0  0  0  0  0  0
   19.8723   19.3965   25.6376 C   0  0  2  0  0  0  0  0  0  0  0  0
   19.4886   20.3115   25.1768 H   0  0  0  0  0  0  0  0  0  0  0  0
   21.3977   19.3527   25.4378 C   0  0  0  0  0  0  0  0  0  0  0  0
   21.8236   18.4245   25.8388 H   0  0  0  0  0  0  0  0  0  0  0  0
   21.6623   19.4215   24.3765 H   0  0  0  0  0  0  0  0  0  0  0  0
   21.8788   20.1962   25.9480 H   0  0  0  0  0  0  0  0  0  0  0  0
   19.5412   19.4911   27.1010 N   0  3  0  0  0  0  0  0  0  0  0  0
   18.5314   19.5642   27.2552 H   0  0  0  0  0  0  0  0  0  0  0  0
   19.9754   20.3130   27.5305 H   0  0  0  0  0  0  0  0  0  0  0  0
   19.8717   18.6686   27.6129 H   0  0  0  0  0  0  0  0  0  0  0  0
  1  2  1  0  0  0  0
  1  3  1  0  0  0  0
  1  4  1  0  0  0  0
  1  5  1  0  0  0  0
  5  6  1  0  0  0  0
  5  7  1  0  0  0  0
  5  8  1  0  0  0  0
  8  9  1  0  0  0  0
  8 10  1  0  0  0  0
  8 11  1  0  0  0  0
 11 12  1  0  0  0  0
 11 13  1  0  0  0  0
 11 14  1  0  0  0  0
 14 15  1  0  0  0  0
 14 16  1  0  0  0  0
 14 17  1  0  0  0  0
 17 18  1  0  0  0  0
 17 19  1  0  0  0  0
 17 20  1  0  0  0  0
 20 21  1  0  0  0  0
 20 22  1  0  0  0  0
 22 23  1  0  0  0  0
 22 24  1  0  0  0  0
 22 25  1  0  0  0  0
 20 26  1  0  0  0  0
 26 27  1  0  0  0  0
 26 28  1  0  0  0  0
 26 29  1  0  0  0  0
M  END
> <VM2 Rank>
59

> <Conf_Id>
199

> <Probability>
0.37

> <Sum Probability>
95.69

> <Delta G>
2.005

> <G>
35.706

> <E>
-2.506

> <-TS>
38.213

> <U+W>
-26.651

> <U>
25.905

> <W>
-52.556

> <W(PB)>
-54.968

> <W(SA)>
2.412

> <Valence>
4.892

> <Coulomb>
20.130

> <VdW>
0.883

> <VdW6>
-10.963

> <VdW12>
11.845

> <Bond>
0.307

> <Angle>
2.002

> <Pdih>
2.583

> <Idih>
0.000

> <Tether>
0.000

$$$$
VeraChem MOL file


 29 28  0  0  0  0  0  0  0  0999 V2000     
   20.3680   20.7352   20.6177 C   0  0  0  0  0  0  0  0  0  0  0  0
   19.9149   21.4743   21.2911 H   0  0  0  0  0  0  0  0  0  0  0  0
   21.3519   20.4618   21.0185 H   0  0  0  0  0  0  0  0  0  0  0  0
   20.5307   21.2207   19.6468 H   0  0  0  0  0  0  0  0  0  0  0  0
   19.4565   19.4975   20.4571 C   0  0  0  0  0  0  0  0  0  0  0  0
   19.9439   18.7612   19.8028 H   0  0  0  0  0  0  0  0  0  0  0  0
   18.5334   19.8014   19.9441 H   0  0  0  0  0  0  0  0  0  0  0  0
   19.0810   18.8345   21.8040 C   0  0  0  0  0  0  0  0  0  0  0  0
   18.5753   19.5743   22.4382 H   0  0  0  0  0  0  0  0  0  0  0  0
   18.3493   18.0381   21.6105 H   0  0  0  0  0  0  0  0  0  0  0  0
   20.2975   18.2326   22.5513 C   0  0  0  0  0  0  0  0  0  0  0  0
   20.9989   19.0281   22.8325 H   0  0  0  0  0  0  0  0  0  0  0  0
   20.8464   17.5712   21.8669 H   0  0  0  0  0  0  0  0  0  0  0  0
   19.9044   17.4178   23.8103 C   0  0  0  0  0  0  0  0  0  0  0  0
   19.2940   16.5572   23.5040 H   0  0  0  0  0  0  0  0  0  0  0  0
   20.8127   16.9905   24.2557 H   0  0  0  0  0  0  0  0  0  0  0  0
   19.1282   18.2207   24.8888 C   0  0  0  0  0  0  0  0  0  0  0  0
   18.9615   17.5758   25.7616 H   0  0  0  0  0  0  0  0  0  0  0  0
   18.1302   18.4601   24.5002 H   0  0  0  0  0  0  0  0  0  0  0  0
   19.8141   19.5298   25.3444 C   0  0  2  0  0  0  0  0  0  0  0  0
   19.9868   20.1531   24.4620 H   0  0  0  0  0  0  0  0  0  0  0  0
   21.1676   19.2635   26.0266 C   0  0  0  0  0  0  0  0  0  0  0  0
   21.0506   18.6041   26.8955 H   0  0  0  0  0  0  0  0  0  0  0  0
   21.8769   18.7957   25.3340 H   0  0  0  0  0  0  0  0  0  0  0  0
   21.6188   20.2026   26.3700 H   0  0  0  0  0  0  0  0  0  0  0  0
   18.9187   20.3244   26.2539 N   0  3  0  0  0  0  0  0  0  0  0  0
   19.3543   21.2100   26.5270 H   0  0  0  0  0  0  0  0  0  0  0  0
   18.7083   19.8100   27.1134 H   0  0  0  0  0  0  0  0  0  0  0  0
   18.0269   20.5492   25.8035 H   0  0  0  0  0  0  0  0  0  0  0  0
  1  2  1  0  0  0  0
  1  3  1  0  0  0  0
  1  4  1  0  0  0  0
  1  5  1  0  0  0  0
  5  6  1  0  0  0  0
  5  7  1  0  0  0  0
  5  8  1  0  0  0  0
  8  9  1  0  0  0  0
  8 10  1  0  0  0  0
  8 11  1  0  0  0  0
 11 12  1  0  0  0  0
 11 13  1  0  0  0  0
 11 14  1  0  0  0  0
 14 15  1  0  0  0  0
 14 16  1  0  0  0  0
 14 17  1  0  0  0  0
 17 18  1  0  0  0  0
 17 19  1  0  0  0  0
 17 20  1  0  0  0  0
 20 21  1  0  0  0  0
 20 22  1  0  0  0  0
 22 23  1  0  0  0  0
 22 24  1  0  0  0  0
 22 25  1  0  0  0  0
 20 26  1  0  0  0  0
 26 27  1  0  0  0  0
 26 28  1  0  0  0  0
 26 29  1  0  0  0  0
M  END
> <VM2 Rank>
60

> <Conf_Id>
257

> <Probability>
0.35

> <Sum Probability>
96.04

> <Delta G>
2.035

> <G>
35.737

> <E>
-2.370

> <-TS>
38.107

> <U+W>
-26.515

> <U>
26.272

> <W>
-52.787

> <W(PB)>
-55.204

> <W(SA)>
2.416

> <Valence>
4.866

> <Coulomb>
20.504

> <VdW>
0.903

> <VdW6>
-10.948

> <VdW12>
11.851

> <Bond>
0.308

> <Angle>
1.874

> <Pdih>
2.685

> <Idih>
0.000

> <Tether>
0.000

$$$$
VeraChem MOL file


 29 28  0  0  0  0  0  0  0  0999 V2000     
   19.3229   20.6437   19.9373 C   0  0  0  0  0  0  0  0  0  0  0  0
   20.0755   21.3844   20.2373 H   0  0  0  0  0  0  0  0  0  0  0  0
   19.6600   20.1716   19.0052 H   0  0  0  0  0  0  0  0  0  0  0  0
   18.3886   21.1793   19.7248 H   0  0  0  0  0  0  0  0  0  0  0  0
   19.1078   19.5920   21.0460 C   0  0  0  0  0  0  0  0  0  0  0  0
   18.3299   18.8828   20.7305 H   0  0  0  0  0  0  0  0  0  0  0  0
   18.7339   20.0962   21.9469 H   0  0  0  0  0  0  0  0  0  0  0  0
   20.4130   18.8265   21.3665 C   0  0  0  0  0  0  0  0  0  0  0  0
   20.8102   18.3951   20.4374 H   0  0  0  0  0  0  0  0  0  0  0  0
   21.1783   19.5291   21.7215 H   0  0  0  0  0  0  0  0  0  0  0  0
   20.2256   17.6798   22.3936 C   0  0  0  0  0  0  0  0  0  0  0  0
   21.1919   17.1784   22.5422 H   0  0  0  0  0  0  0  0  0  0  0  0
   19.5586   16.9219   21.9602 H   0  0  0  0  0  0  0  0  0  0  0  0
   19.6622   18.1047   23.7746 C   0  0  0  0  0  0  0  0  0  0  0  0
   18.6446   18.4963   23.6527 H   0  0  0  0  0  0  0  0  0  0  0  0
   19.5671   17.2003   24.3889 H   0  0  0  0  0  0  0  0  0  0  0  0
   20.5528   19.1423   24.5113 C   0  0  0  0  0  0  0  0  0  0  0  0
   20.6239   20.0571   23.9104 H   0  0  0  0  0  0  0  0  0  0  0  0
   21.5756   18.7513   24.5917 H   0  0  0  0  0  0  0  0  0  0  0  0
   20.0582   19.5392   25.9223 C   0  0  2  0  0  0  0  0  0  0  0  0
   20.7399   20.3073   26.3006 H   0  0  0  0  0  0  0  0  0  0  0  0
   20.1001   18.3576   26.9070 C   0  0  0  0  0  0  0  0  0  0  0  0
   19.8829   18.7007   27.9260 H   0  0  0  0  0  0  0  0  0  0  0  0
   19.3634   17.5874   26.6501 H   0  0  0  0  0  0  0  0  0  0  0  0
   21.0942   17.8936   26.9175 H   0  0  0  0  0  0  0  0  0  0  0  0
   18.6934   20.1702   25.8953 N   0  3  0  0  0  0  0  0  0  0  0  0
   18.4073   20.4819   26.8279 H   0  0  0  0  0  0  0  0  0  0  0  0
   17.9866   19.5099   25.5619 H   0  0  0  0  0  0  0  0  0  0  0  0
   18.6697   20.9871   25.2785 H   0  0  0  0  0  0  0  0  0  0  0  0
  1  2  1  0  0  0  0
  1  3  1  0  0  0  0
  1  4  1  0  0  0  0
  1  5  1  0  0  0  0
  5  6  1  0  0  0  0
  5  7  1  0  0  0  0
  5  8  1  0  0  0  0
  8  9  1  0  0  0  0
  8 10  1  0  0  0  0
  8 11  1  0  0  0  0
 11 12  1  0  0  0  0
 11 13  1  0  0  0  0
 11 14  1  0  0  0  0
 14 15  1  0  0  0  0
 14 16  1  0  0  0  0
 14 17  1  0  0  0  0
 17 18  1  0  0  0  0
 17 19  1  0  0  0  0
 17 20  1  0  0  0  0
 20 21  1  0  0  0  0
 20 22  1  0  0  0  0
 22 23  1  0  0  0  0
 22 24  1  0  0  0  0
 22 25  1  0  0  0  0
 20 26  1  0  0  0  0
 26 27  1  0  0  0  0
 26 28  1  0  0  0  0
 26 29  1  0  0  0  0
M  END
> <VM2 Rank>
61

> <Conf_Id>
1277

> <Probability>
0.34

> <Sum Probability>
96.38

> <Delta G>
2.056

> <G>
35.758

> <E>
-2.204

> <-TS>
37.962

> <U+W>
-26.348

> <U>
26.385

> <W>
-52.734

> <W(PB)>
-55.179

> <W(SA)>
2.445

> <Valence>
4.726

> <Coulomb>
20.482

> <VdW>
1.177

> <VdW6>
-10.349

> <VdW12>
11.526

> <Bond>
0.319

> <Angle>
1.933

> <Pdih>
2.474

> <Idih>
0.000

> <Tether>
0.000

$$$$
VeraChem MOL file


 29 28  0  0  0  0  0  0  0  0999 V2000     
   20.2369   19.5314   19.5739 C   0  0  0  0  0  0  0  0  0  0  0  0
   19.4821   18.8449   19.1689 H   0  0  0  0  0  0  0  0  0  0  0  0
   20.5159   20.2318   18.7761 H   0  0  0  0  0  0  0  0  0  0  0  0
   21.1311   18.9491   19.8279 H   0  0  0  0  0  0  0  0  0  0  0  0
   19.6900   20.2984   20.7992 C   0  0  0  0  0  0  0  0  0  0  0  0
   18.8796   20.9620   20.4665 H   0  0  0  0  0  0  0  0  0  0  0  0
   20.4740   20.9515   21.2073 H   0  0  0  0  0  0  0  0  0  0  0  0
   19.1457   19.3736   21.9147 C   0  0  0  0  0  0  0  0  0  0  0  0
   18.6637   20.0050   22.6721 H   0  0  0  0  0  0  0  0  0  0  0  0
   18.3590   18.7262   21.5035 H   0  0  0  0  0  0  0  0  0  0  0  0
   20.2407   18.5052   22.5842 C   0  0  0  0  0  0  0  0  0  0  0  0
   21.0328   19.1518   22.9845 H   0  0  0  0  0  0  0  0  0  0  0  0
   20.7200   17.8733   21.8255 H   0  0  0  0  0  0  0  0  0  0  0  0
   19.6978   17.5768   23.7014 C   0  0  0  0  0  0  0  0  0  0  0  0
   18.9776   16.8727   23.2624 H   0  0  0  0  0  0  0  0  0  0  0  0
   20.5220   16.9568   24.0787 H   0  0  0  0  0  0  0  0  0  0  0  0
   19.0184   18.3077   24.8908 C   0  0  0  0  0  0  0  0  0  0  0  0
   18.7431   17.5667   25.6529 H   0  0  0  0  0  0  0  0  0  0  0  0
   18.0723   18.7430   24.5450 H   0  0  0  0  0  0  0  0  0  0  0  0
   19.8716   19.4192   25.5450 C   0  0  2  0  0  0  0  0  0  0  0  0
   20.1506   20.1398   24.7705 H   0  0  0  0  0  0  0  0  0  0  0  0
   21.1580   18.8600   26.1780 C   0  0  0  0  0  0  0  0  0  0  0  0
   21.8094   18.4073   25.4214 H   0  0  0  0  0  0  0  0  0  0  0  0
   21.7297   19.6605   26.6634 H   0  0  0  0  0  0  0  0  0  0  0  0
   20.9292   18.0984   26.9338 H   0  0  0  0  0  0  0  0  0  0  0  0
   19.0770   20.1839   26.5667 N   0  3  0  0  0  0  0  0  0  0  0  0
   19.6269   20.9454   26.9746 H   0  0  0  0  0  0  0  0  0  0  0  0
   18.7766   19.5787   27.3356 H   0  0  0  0  0  0  0  0  0  0  0  0
   18.2363   20.6006   26.1565 H   0  0  0  0  0  0  0  0  0  0  0  0
  1  2  1  0  0  0  0
  1  3  1  0  0  0  0
  1  4  1  0  0  0  0
  1  5  1  0  0  0  0
  5  6  1  0  0  0  0
  5  7  1  0  0  0  0
  5  8  1  0  0  0  0
  8  9  1  0  0  0  0
  8 10  1  0  0  0  0
  8 11  1  0  0  0  0
 11 12  1  0  0  0  0
 11 13  1  0  0  0  0
 11 14  1  0  0  0  0
 14 15  1  0  0  0  0
 14 16  1  0  0  0  0
 14 17  1  0  0  0  0
 17 18  1  0  0  0  0
 17 19  1  0  0  0  0
 17 20  1  0  0  0  0
 20 21  1  0  0  0  0
 20 22  1  0  0  0  0
 22 23  1  0  0  0  0
 22 24  1  0  0  0  0
 22 25  1  0  0  0  0
 20 26  1  0  0  0  0
 26 27  1  0  0  0  0
 26 28  1  0  0  0  0
 26 29  1  0  0  0  0
M  END
> <VM2 Rank>
62

> <Conf_Id>
1232

> <Probability>
0.28

> <Sum Probability>
96.66

> <Delta G>
2.173

> <G>
35.874

> <E>
-2.187

> <-TS>
38.062

> <U+W>
-26.332

> <U>
26.391

> <W>
-52.723

> <W(PB)>
-55.159

> <W(SA)>
2.436

> <Valence>
4.975

> <Coulomb>
20.373

> <VdW>
1.043

> <VdW6>
-10.751

> <VdW12>
11.795

> <Bond>
0.316

> <Angle>
1.997

> <Pdih>
2.662

> <Idih>
0.000

> <Tether>
0.000

$$$$
VeraChem MOL file


 29 28  0  0  0  0  0  0  0  0999 V2000     
   18.9463   20.2664   19.9135 C   0  0  0  0  0  0  0  0  0  0  0  0
   18.4086   21.0253   20.4967 H   0  0  0  0  0  0  0  0  0  0  0  0
   19.7810   20.7591   19.3979 H   0  0  0  0  0  0  0  0  0  0  0  0
   18.2598   19.8793   19.1494 H   0  0  0  0  0  0  0  0  0  0  0  0
   19.4508   19.1248   20.8211 C   0  0  0  0  0  0  0  0  0  0  0  0
   19.9574   18.3672   20.2070 H   0  0  0  0  0  0  0  0  0  0  0  0
   18.5874   18.6318   21.2871 H   0  0  0  0  0  0  0  0  0  0  0  0
   20.4186   19.6469   21.9087 C   0  0  0  0  0  0  0  0  0  0  0  0
   21.2396   20.1919   21.4227 H   0  0  0  0  0  0  0  0  0  0  0  0
   19.9035   20.3805   22.5425 H   0  0  0  0  0  0  0  0  0  0  0  0
   21.0302   18.5230   22.7842 C   0  0  0  0  0  0  0  0  0  0  0  0
   21.7484   18.9709   23.4840 H   0  0  0  0  0  0  0  0  0  0  0  0
   21.6213   17.8550   22.1428 H   0  0  0  0  0  0  0  0  0  0  0  0
   20.0038   17.6697   23.5771 C   0  0  0  0  0  0  0  0  0  0  0  0
   19.3941   17.0856   22.8752 H   0  0  0  0  0  0  0  0  0  0  0  0
   20.5485   16.9250   24.1725 H   0  0  0  0  0  0  0  0  0  0  0  0
   19.0612   18.4823   24.5047 C   0  0  0  0  0  0  0  0  0  0  0  0
   18.4181   17.7856   25.0584 H   0  0  0  0  0  0  0  0  0  0  0  0
   18.3851   19.0821   23.8822 H   0  0  0  0  0  0  0  0  0  0  0  0
   19.7813   19.4172   25.5042 C   0  0  2  0  0  0  0  0  0  0  0  0
   20.4332   20.0894   24.9385 H   0  0  0  0  0  0  0  0  0  0  0  0
   20.6436   18.6323   26.5086 C   0  0  0  0  0  0  0  0  0  0  0  0
   21.4478   18.0867   26.0014 H   0  0  0  0  0  0  0  0  0  0  0  0
   21.1152   19.3131   27.2279 H   0  0  0  0  0  0  0  0  0  0  0  0
   20.0390   17.9092   27.0700 H   0  0  0  0  0  0  0  0  0  0  0  0
   18.8001   20.2934   26.2319 N   0  3  0  0  0  0  0  0  0  0  0  0
   18.1492   19.7383   26.7939 H   0  0  0  0  0  0  0  0  0  0  0  0
   18.2435   20.8569   25.5828 H   0  0  0  0  0  0  0  0  0  0  0  0
   19.2762   20.9407   26.8668 H   0  0  0  0  0  0  0  0  0  0  0  0
  1  2  1  0  0  0  0
  1  3  1  0  0  0  0
  1  4  1  0  0  0  0
  1  5  1  0  0  0  0
  5  6  1  0  0  0  0
  5  7  1  0  0  0  0
  5  8  1  0  0  0  0
  8  9  1  0  0  0  0
  8 10  1  0  0  0  0
  8 11  1  0  0  0  0
 11 12  1  0  0  0  0
 11 13  1  0  0  0  0
 11 14  1  0  0  0  0
 14 15  1  0  0  0  0
 14 16  1  0  0  0  0
 14 17  1  0  0  0  0
 17 18  1  0  0  0  0
 17 19  1  0  0  0  0
 17 20  1  0  0  0  0
 20 21  1  0  0  0  0
 20 22  1  0  0  0  0
 22 23  1  0  0  0  0
 22 24  1  0  0  0  0
 22 25  1  0  0  0  0
 20 26  1  0  0  0  0
 26 27  1  0  0  0  0
 26 28  1  0  0  0  0
 26 29  1  0  0  0  0
M  END
> <VM2 Rank>
63

> <Conf_Id>
652

> <Probability>
0.28

> <Sum Probability>
96.94

> <Delta G>
2.177

> <G>
35.879

> <E>
-2.424

> <-TS>
38.303

> <U+W>
-26.569

> <U>
26.205

> <W>
-52.774

> <W(PB)>
-55.195

> <W(SA)>
2.421

> <Valence>
4.871

> <Coulomb>
20.549

> <VdW>
0.786

> <VdW6>
-11.159

> <VdW12>
11.945

> <Bond>
0.316

> <Angle>
2.038

> <Pdih>
2.517

> <Idih>
0.000

> <Tether>
0.000

$$$$
VeraChem MOL file


 29 28  0  0  0  0  0  0  0  0999 V2000     
   20.1688   18.1861   20.0850 C   0  0  0  0  0  0  0  0  0  0  0  0
   19.9925   17.1696   19.7104 H   0  0  0  0  0  0  0  0  0  0  0  0
   20.2327   18.8574   19.2188 H   0  0  0  0  0  0  0  0  0  0  0  0
   21.1410   18.1875   20.5933 H   0  0  0  0  0  0  0  0  0  0  0  0
   19.0313   18.6171   21.0379 C   0  0  0  0  0  0  0  0  0  0  0  0
   18.9945   17.9395   21.9014 H   0  0  0  0  0  0  0  0  0  0  0  0
   18.0702   18.4960   20.5191 H   0  0  0  0  0  0  0  0  0  0  0  0
   19.1535   20.0866   21.5148 C   0  0  0  0  0  0  0  0  0  0  0  0
   19.0846   20.7491   20.6411 H   0  0  0  0  0  0  0  0  0  0  0  0
   18.2841   20.3322   22.1389 H   0  0  0  0  0  0  0  0  0  0  0  0
   20.4561   20.4237   22.2893 C   0  0  0  0  0  0  0  0  0  0  0  0
   20.4190   21.4780   22.5962 H   0  0  0  0  0  0  0  0  0  0  0  0
   21.3138   20.3460   21.6080 H   0  0  0  0  0  0  0  0  0  0  0  0
   20.7260   19.5460   23.5383 C   0  0  0  0  0  0  0  0  0  0  0  0
   20.8768   18.5051   23.2260 H   0  0  0  0  0  0  0  0  0  0  0  0
   21.6735   19.8687   23.9913 H   0  0  0  0  0  0  0  0  0  0  0  0
   19.6026   19.6320   24.6031 C   0  0  0  0  0  0  0  0  0  0  0  0
   18.6723   19.2078   24.2045 H   0  0  0  0  0  0  0  0  0  0  0  0
   19.3999   20.6907   24.8117 H   0  0  0  0  0  0  0  0  0  0  0  0
   19.9555   18.9278   25.9327 C   0  0  2  0  0  0  0  0  0  0  0  0
   20.9060   19.3324   26.2939 H   0  0  0  0  0  0  0  0  0  0  0  0
   20.1075   17.4060   25.7586 C   0  0  0  0  0  0  0  0  0  0  0  0
   19.1964   16.9617   25.3387 H   0  0  0  0  0  0  0  0  0  0  0  0
   20.9458   17.1622   25.0959 H   0  0  0  0  0  0  0  0  0  0  0  0
   20.3068   16.9248   26.7240 H   0  0  0  0  0  0  0  0  0  0  0  0
   18.9349   19.2306   26.9943 N   0  3  0  0  0  0  0  0  0  0  0  0
   18.8480   20.2379   27.1573 H   0  0  0  0  0  0  0  0  0  0  0  0
   19.1856   18.7981   27.8881 H   0  0  0  0  0  0  0  0  0  0  0  0
   18.0092   18.8798   26.7342 H   0  0  0  0  0  0  0  0  0  0  0  0
  1  2  1  0  0  0  0
  1  3  1  0  0  0  0
  1  4  1  0  0  0  0
  1  5  1  0  0  0  0
  5  6  1  0  0  0  0
  5  7  1  0  0  0  0
  5  8  1  0  0  0  0
  8  9  1  0  0  0  0
  8 10  1  0  0  0  0
  8 11  1  0  0  0  0
 11 12  1  0  0  0  0
 11 13  1  0  0  0  0
 11 14  1  0  0  0  0
 14 15  1  0  0  0  0
 14 16  1  0  0  0  0
 14 17  1  0  0  0  0
 17 18  1  0  0  0  0
 17 19  1  0  0  0  0
 17 20  1  0  0  0  0
 20 21  1  0  0  0  0
 20 22  1  0  0  0  0
 22 23  1  0  0  0  0
 22 24  1  0  0  0  0
 22 25  1  0  0  0  0
 20 26  1  0  0  0  0
 26 27  1  0  0  0  0
 26 28  1  0  0  0  0
 26 29  1  0  0  0  0
M  END
> <VM2 Rank>
64

> <Conf_Id>
69

> <Probability>
0.27

> <Sum Probability>
97.21

> <Delta G>
2.186

> <G>
35.888

> <E>
-2.307

> <-TS>
38.195

> <U+W>
-26.452

> <U>
26.061

> <W>
-52.512

> <W(PB)>
-54.928

> <W(SA)>
2.416

> <Valence>
5.062

> <Coulomb>
19.918

> <VdW>
1.081

> <VdW6>
-10.857

> <VdW12>
11.938

> <Bond>
0.323

> <Angle>
2.057

> <Pdih>
2.682

> <Idih>
0.000

> <Tether>
0.000

$$$$
VeraChem MOL file


 29 28  0  0  0  0  0  0  0  0999 V2000     
   18.9082   19.8313   19.9303 C   0  0  0  0  0  0  0  0  0  0  0  0
   19.3896   20.7795   19.6581 H   0  0  0  0  0  0  0  0  0  0  0  0
   18.3059   19.5017   19.0738 H   0  0  0  0  0  0  0  0  0  0  0  0
   18.2208   20.0208   20.7641 H   0  0  0  0  0  0  0  0  0  0  0  0
   19.9598   18.7600   20.2968 C   0  0  0  0  0  0  0  0  0  0  0  0
   20.5452   18.5177   19.3988 H   0  0  0  0  0  0  0  0  0  0  0  0
   19.4552   17.8283   20.5853 H   0  0  0  0  0  0  0  0  0  0  0  0
   20.9357   19.2103   21.4137 C   0  0  0  0  0  0  0  0  0  0  0  0
   21.6609   18.4052   21.5957 H   0  0  0  0  0  0  0  0  0  0  0  0
   21.5214   20.0647   21.0476 H   0  0  0  0  0  0  0  0  0  0  0  0
   20.2726   19.6045   22.7589 C   0  0  0  0  0  0  0  0  0  0  0  0
   19.6220   20.4770   22.6139 H   0  0  0  0  0  0  0  0  0  0  0  0
   21.0678   19.9302   23.4420 H   0  0  0  0  0  0  0  0  0  0  0  0
   19.4682   18.4530   23.4133 C   0  0  0  0  0  0  0  0  0  0  0  0
   18.6600   18.1421   22.7387 H   0  0  0  0  0  0  0  0  0  0  0  0
   20.1124   17.5731   23.5397 H   0  0  0  0  0  0  0  0  0  0  0  0
   18.8301   18.8474   24.7705 C   0  0  0  0  0  0  0  0  0  0  0  0
   18.2560   17.9940   25.1550 H   0  0  0  0  0  0  0  0  0  0  0  0
   18.1007   19.6480   24.5902 H   0  0  0  0  0  0  0  0  0  0  0  0
   19.8264   19.3200   25.8556 C   0  0  2  0  0  0  0  0  0  0  0  0
   20.3820   20.1777   25.4654 H   0  0  0  0  0  0  0  0  0  0  0  0
   20.8329   18.2198   26.2363 C   0  0  0  0  0  0  0  0  0  0  0  0
   21.4948   18.5629   27.0409 H   0  0  0  0  0  0  0  0  0  0  0  0
   20.3188   17.3140   26.5810 H   0  0  0  0  0  0  0  0  0  0  0  0
   21.4692   17.9515   25.3849 H   0  0  0  0  0  0  0  0  0  0  0  0
   19.1022   19.8097   27.0787 N   0  3  0  0  0  0  0  0  0  0  0  0
   19.7555   20.1608   27.7848 H   0  0  0  0  0  0  0  0  0  0  0  0
   18.5553   19.0618   27.5138 H   0  0  0  0  0  0  0  0  0  0  0  0
   18.4567   20.5726   26.8546 H   0  0  0  0  0  0  0  0  0  0  0  0
  1  2  1  0  0  0  0
  1  3  1  0  0  0  0
  1  4  1  0  0  0  0
  1  5  1  0  0  0  0
  5  6  1  0  0  0  0
  5  7  1  0  0  0  0
  5  8  1  0  0  0  0
  8  9  1  0  0  0  0
  8 10  1  0  0  0  0
  8 11  1  0  0  0  0
 11 12  1  0  0  0  0
 11 13  1  0  0  0  0
 11 14  1  0  0  0  0
 14 15  1  0  0  0  0
 14 16  1  0  0  0  0
 14 17  1  0  0  0  0
 17 18  1  0  0  0  0
 17 19  1  0  0  0  0
 17 20  1  0  0  0  0
 20 21  1  0  0  0  0
 20 22  1  0  0  0  0
 22 23  1  0  0  0  0
 22 24  1  0  0  0  0
 22 25  1  0  0  0  0
 20 26  1  0  0  0  0
 26 27  1  0  0  0  0
 26 28  1  0  0  0  0
 26 29  1  0  0  0  0
M  END
> <VM2 Rank>
65

> <Conf_Id>
1350

> <Probability>
0.25

> <Sum Probability>
97.46

> <Delta G>
2.233

> <G>
35.935

> <E>
-2.151

> <-TS>
38.086

> <U+W>
-26.296

> <U>
26.049

> <W>
-52.345

> <W(PB)>
-54.782

> <W(SA)>
2.438

> <Valence>
4.964

> <Coulomb>
19.934

> <VdW>
1.151

> <VdW6>
-10.616

> <VdW12>
11.766

> <Bond>
0.316

> <Angle>
2.146

> <Pdih>
2.502

> <Idih>
0.000

> <Tether>
0.000

$$$$
VeraChem MOL file


 29 28  0  0  0  0  0  0  0  0999 V2000     
   18.9693   18.3287   20.1947 C   0  0  0  0  0  0  0  0  0  0  0  0
   18.1027   18.5132   20.8417 H   0  0  0  0  0  0  0  0  0  0  0  0
   18.9191   19.0233   19.3463 H   0  0  0  0  0  0  0  0  0  0  0  0
   18.8770   17.3085   19.8003 H   0  0  0  0  0  0  0  0  0  0  0  0
   20.2975   18.4923   20.9675 C   0  0  0  0  0  0  0  0  0  0  0  0
   21.1273   18.1942   20.3118 H   0  0  0  0  0  0  0  0  0  0  0  0
   20.3202   17.7967   21.8170 H   0  0  0  0  0  0  0  0  0  0  0  0
   20.5492   19.9417   21.4551 C   0  0  0  0  0  0  0  0  0  0  0  0
   21.5321   19.9884   21.9423 H   0  0  0  0  0  0  0  0  0  0  0  0
   20.6242   20.6014   20.5797 H   0  0  0  0  0  0  0  0  0  0  0  0
   19.4699   20.5136   22.4136 C   0  0  0  0  0  0  0  0  0  0  0  0
   18.5269   20.6361   21.8644 H   0  0  0  0  0  0  0  0  0  0  0  0
   19.7689   21.5271   22.7140 H   0  0  0  0  0  0  0  0  0  0  0  0
   19.2021   19.6707   23.6869 C   0  0  0  0  0  0  0  0  0  0  0  0
   18.4088   20.1662   24.2614 H   0  0  0  0  0  0  0  0  0  0  0  0
   18.8015   18.6910   23.3979 H   0  0  0  0  0  0  0  0  0  0  0  0
   20.4588   19.4954   24.5822 C   0  0  0  0  0  0  0  0  0  0  0  0
   20.8895   20.4822   24.7964 H   0  0  0  0  0  0  0  0  0  0  0  0
   21.2295   18.9407   24.0325 H   0  0  0  0  0  0  0  0  0  0  0  0
   20.2038   18.7690   25.9238 C   0  0  2  0  0  0  0  0  0  0  0  0
   21.1578   18.7302   26.4588 H   0  0  0  0  0  0  0  0  0  0  0  0
   19.7282   17.3208   25.7145 C   0  0  0  0  0  0  0  0  0  0  0  0
   19.6858   16.7889   26.6728 H   0  0  0  0  0  0  0  0  0  0  0  0
   18.7283   17.2831   25.2661 H   0  0  0  0  0  0  0  0  0  0  0  0
   20.4192   16.7741   25.0609 H   0  0  0  0  0  0  0  0  0  0  0  0
   19.2571   19.5238   26.8157 N   0  3  0  0  0  0  0  0  0  0  0  0
   19.1489   19.0614   27.7229 H   0  0  0  0  0  0  0  0  0  0  0  0
   18.3276   19.5953   26.3945 H   0  0  0  0  0  0  0  0  0  0  0  0
   19.5890   20.4759   26.9948 H   0  0  0  0  0  0  0  0  0  0  0  0
  1  2  1  0  0  0  0
  1  3  1  0  0  0  0
  1  4  1  0  0  0  0
  1  5  1  0  0  0  0
  5  6  1  0  0  0  0
  5  7  1  0  0  0  0
  5  8  1  0  0  0  0
  8  9  1  0  0  0  0
  8 10  1  0  0  0  0
  8 11  1  0  0  0  0
 11 12  1  0  0  0  0
 11 13  1  0  0  0  0
 11 14  1  0  0  0  0
 14 15  1  0  0  0  0
 14 16  1  0  0  0  0
 14 17  1  0  0  0  0
 17 18  1  0  0  0  0
 17 19  1  0  0  0  0
 17 20  1  0  0  0  0
 20 21  1  0  0  0  0
 20 22  1  0  0  0  0
 22 23  1  0  0  0  0
 22 24  1  0  0  0  0
 22 25  1  0  0  0  0
 20 26  1  0  0  0  0
 26 27  1  0  0  0  0
 26 28  1  0  0  0  0
 26 29  1  0  0  0  0
M  END
> <VM2 Rank>
66

> <Conf_Id>
1195

> <Probability>
0.23

> <Sum Probability>
97.69

> <Delta G>
2.284

> <G>
35.986

> <E>
-2.344

> <-TS>
38.330

> <U+W>
-26.489

> <U>
26.082

> <W>
-52.571

> <W(PB)>
-54.967

> <W(SA)>
2.396

> <Valence>
5.054

> <Coulomb>
19.931

> <VdW>
1.097

> <VdW6>
-11.342

> <VdW12>
12.439

> <Bond>
0.355

> <Angle>
2.147

> <Pdih>
2.552

> <Idih>
0.000

> <Tether>
0.000

$$$$
VeraChem MOL file


 29 28  0  0  0  0  0  0  0  0999 V2000     
   20.5013   20.1299   20.0751 C   0  0  0  0  0  0  0  0  0  0  0  0
   21.4064   19.8022   20.6013 H   0  0  0  0  0  0  0  0  0  0  0  0
   20.3765   19.5031   19.1827 H   0  0  0  0  0  0  0  0  0  0  0  0
   20.6680   21.1620   19.7406 H   0  0  0  0  0  0  0  0  0  0  0  0
   19.2564   20.0505   20.9871 C   0  0  0  0  0  0  0  0  0  0  0  0
   18.3996   20.4868   20.4550 H   0  0  0  0  0  0  0  0  0  0  0  0
   19.4080   20.6757   21.8771 H   0  0  0  0  0  0  0  0  0  0  0  0
   18.8934   18.6030   21.4050 C   0  0  0  0  0  0  0  0  0  0  0  0
   17.9704   18.6236   21.9992 H   0  0  0  0  0  0  0  0  0  0  0  0
   18.6475   18.0260   20.5030 H   0  0  0  0  0  0  0  0  0  0  0  0
   19.9980   17.8447   22.1897 C   0  0  0  0  0  0  0  0  0  0  0  0
   20.8507   17.6601   21.5227 H   0  0  0  0  0  0  0  0  0  0  0  0
   19.6164   16.8507   22.4604 H   0  0  0  0  0  0  0  0  0  0  0  0
   20.5110   18.5512   23.4714 C   0  0  0  0  0  0  0  0  0  0  0  0
   21.3080   17.9292   23.8981 H   0  0  0  0  0  0  0  0  0  0  0  0
   20.9808   19.5083   23.2092 H   0  0  0  0  0  0  0  0  0  0  0  0
   19.4063   18.7829   24.5347 C   0  0  0  0  0  0  0  0  0  0  0  0
   18.9529   17.8225   24.8135 H   0  0  0  0  0  0  0  0  0  0  0  0
   18.6067   19.3886   24.0912 H   0  0  0  0  0  0  0  0  0  0  0  0
   19.9065   19.5107   25.8036 C   0  0  2  0  0  0  0  0  0  0  0  0
   20.4053   20.4347   25.4953 H   0  0  0  0  0  0  0  0  0  0  0  0
   20.9069   18.6605   26.6074 C   0  0  0  0  0  0  0  0  0  0  0  0
   20.4731   17.6908   26.8815 H   0  0  0  0  0  0  0  0  0  0  0  0
   21.8253   18.4783   26.0379 H   0  0  0  0  0  0  0  0  0  0  0  0
   21.1968   19.1762   27.5312 H   0  0  0  0  0  0  0  0  0  0  0  0
   18.7562   19.9225   26.6800 N   0  3  0  0  0  0  0  0  0  0  0  0
   18.2328   19.1095   27.0161 H   0  0  0  0  0  0  0  0  0  0  0  0
   18.0983   20.5272   26.1797 H   0  0  0  0  0  0  0  0  0  0  0  0
   19.0796   20.4392   27.5028 H   0  0  0  0  0  0  0  0  0  0  0  0
  1  2  1  0  0  0  0
  1  3  1  0  0  0  0
  1  4  1  0  0  0  0
  1  5  1  0  0  0  0
  5  6  1  0  0  0  0
  5  7  1  0  0  0  0
  5  8  1  0  0  0  0
  8  9  1  0  0  0  0
  8 10  1  0  0  0  0
  8 11  1  0  0  0  0
 11 12  1  0  0  0  0
 11 13  1  0  0  0  0
 11 14  1  0  0  0  0
 14 15  1  0  0  0  0
 14 16  1  0  0  0  0
 14 17  1  0  0  0  0
 17 18  1  0  0  0  0
 17 19  1  0  0  0  0
 17 20  1  0  0  0  0
 20 21  1  0  0  0  0
 20 22  1  0  0  0  0
 22 23  1  0  0  0  0
 22 24  1  0  0  0  0
 22 25  1  0  0  0  0
 20 26  1  0  0  0  0
 26 27  1  0  0  0  0
 26 28  1  0  0  0  0
 26 29  1  0  0  0  0
M  END
> <VM2 Rank>
67

> <Conf_Id>
186

> <Probability>
0.20

> <Sum Probability>
97.89

> <Delta G>
2.385

> <G>
36.087

> <E>
-2.051

> <-TS>
38.138

> <U+W>
-26.195

> <U>
26.466

> <W>
-52.661

> <W(PB)>
-55.092

> <W(SA)>
2.430

> <Valence>
5.199

> <Coulomb>
20.030

> <VdW>
1.237

> <VdW6>
-10.692

> <VdW12>
11.929

> <Bond>
0.334

> <Angle>
2.222

> <Pdih>
2.643

> <Idih>
0.000

> <Tether>
0.000

$$$$
VeraChem MOL file


 29 28  0  0  0  0  0  0  0  0999 V2000     
   19.3666   19.1964   19.7880 C   0  0  0  0  0  0  0  0  0  0  0  0
   19.2235   18.4554   18.9909 H   0  0  0  0  0  0  0  0  0  0  0  0
   18.3783   19.4315   20.2022 H   0  0  0  0  0  0  0  0  0  0  0  0
   19.7739   20.1076   19.3310 H   0  0  0  0  0  0  0  0  0  0  0  0
   20.3189   18.6467   20.8736 C   0  0  0  0  0  0  0  0  0  0  0  0
   21.2524   18.3217   20.3935 H   0  0  0  0  0  0  0  0  0  0  0  0
   19.8833   17.7459   21.3260 H   0  0  0  0  0  0  0  0  0  0  0  0
   20.6638   19.6851   21.9712 C   0  0  0  0  0  0  0  0  0  0  0  0
   21.3898   19.2418   22.6655 H   0  0  0  0  0  0  0  0  0  0  0  0
   21.1827   20.5335   21.5045 H   0  0  0  0  0  0  0  0  0  0  0  0
   19.4486   20.2273   22.7706 C   0  0  0  0  0  0  0  0  0  0  0  0
   18.8002   20.8035   22.0973 H   0  0  0  0  0  0  0  0  0  0  0  0
   19.8110   20.9523   23.5113 H   0  0  0  0  0  0  0  0  0  0  0  0
   18.5936   19.1452   23.4831 C   0  0  0  0  0  0  0  0  0  0  0  0
   17.7732   19.6398   24.0198 H   0  0  0  0  0  0  0  0  0  0  0  0
   18.1065   18.5115   22.7302 H   0  0  0  0  0  0  0  0  0  0  0  0
   19.3808   18.2400   24.4677 C   0  0  0  0  0  0  0  0  0  0  0  0
   20.0882   17.6214   23.9007 H   0  0  0  0  0  0  0  0  0  0  0  0
   18.6828   17.5388   24.9439 H   0  0  0  0  0  0  0  0  0  0  0  0
   20.1500   19.0164   25.5591 C   0  0  2  0  0  0  0  0  0  0  0  0
   20.8395   19.7088   25.0672 H   0  0  0  0  0  0  0  0  0  0  0  0
   20.9753   18.0500   26.4231 C   0  0  0  0  0  0  0  0  0  0  0  0
   21.6852   17.4852   25.8059 H   0  0  0  0  0  0  0  0  0  0  0  0
   21.5531   18.5997   27.1764 H   0  0  0  0  0  0  0  0  0  0  0  0
   20.3291   17.3325   26.9442 H   0  0  0  0  0  0  0  0  0  0  0  0
   19.2382   19.8490   26.4176 N   0  3  0  0  0  0  0  0  0  0  0  0
   18.7071   20.5181   25.8537 H   0  0  0  0  0  0  0  0  0  0  0  0
   19.7639   20.3823   27.1160 H   0  0  0  0  0  0  0  0  0  0  0  0
   18.5642   19.2653   26.9200 H   0  0  0  0  0  0  0  0  0  0  0  0
  1  2  1  0  0  0  0
  1  3  1  0  0  0  0
  1  4  1  0  0  0  0
  1  5  1  0  0  0  0
  5  6  1  0  0  0  0
  5  7  1  0  0  0  0
  5  8  1  0  0  0  0
  8  9  1  0  0  0  0
  8 10  1  0  0  0  0
  8 11  1  0  0  0  0
 11 12  1  0  0  0  0
 11 13  1  0  0  0  0
 11 14  1  0  0  0  0
 14 15  1  0  0  0  0
 14 16  1  0  0  0  0
 14 17  1  0  0  0  0
 17 18  1  0  0  0  0
 17 19  1  0  0  0  0
 17 20  1  0  0  0  0
 20 21  1  0  0  0  0
 20 22  1  0  0  0  0
 22 23  1  0  0  0  0
 22 24  1  0  0  0  0
 22 25  1  0  0  0  0
 20 26  1  0  0  0  0
 26 27  1  0  0  0  0
 26 28  1  0  0  0  0
 26 29  1  0  0  0  0
M  END
> <VM2 Rank>
68

> <Conf_Id>
181

> <Probability>
0.18

> <Sum Probability>
98.07

> <Delta G>
2.439

> <G>
36.140

> <E>
-2.350

> <-TS>
38.491

> <U+W>
-26.495

> <U>
25.928

> <W>
-52.422

> <W(PB)>
-54.827

> <W(SA)>
2.405

> <Valence>
4.806

> <Coulomb>
20.407

> <VdW>
0.715

> <VdW6>
-11.781

> <VdW12>
12.496

> <Bond>
0.347

> <Angle>
2.053

> <Pdih>
2.406

> <Idih>
0.000

> <Tether>
0.000

$$$$
VeraChem MOL file


 29 28  0  0  0  0  0  0  0  0999 V2000     
   19.2038   20.8702   20.9114 C   0  0  0  0  0  0  0  0  0  0  0  0
   19.1329   21.0351   21.9932 H   0  0  0  0  0  0  0  0  0  0  0  0
   20.1183   21.3571   20.5485 H   0  0  0  0  0  0  0  0  0  0  0  0
   18.3474   21.3725   20.4435 H   0  0  0  0  0  0  0  0  0  0  0  0
   19.2029   19.3640   20.5655 C   0  0  0  0  0  0  0  0  0  0  0  0
   19.1588   19.2530   19.4731 H   0  0  0  0  0  0  0  0  0  0  0  0
   18.2881   18.8949   20.9514 H   0  0  0  0  0  0  0  0  0  0  0  0
   20.4534   18.6111   21.0867 C   0  0  0  0  0  0  0  0  0  0  0  0
   20.3952   17.5622   20.7647 H   0  0  0  0  0  0  0  0  0  0  0  0
   21.3461   19.0259   20.5987 H   0  0  0  0  0  0  0  0  0  0  0  0
   20.6599   18.6563   22.6224 C   0  0  0  0  0  0  0  0  0  0  0  0
   20.8256   19.6934   22.9401 H   0  0  0  0  0  0  0  0  0  0  0  0
   21.5854   18.1150   22.8622 H   0  0  0  0  0  0  0  0  0  0  0  0
   19.4891   18.0281   23.4193 C   0  0  0  0  0  0  0  0  0  0  0  0
   18.5681   18.6016   23.2557 H   0  0  0  0  0  0  0  0  0  0  0  0
   19.2927   17.0187   23.0324 H   0  0  0  0  0  0  0  0  0  0  0  0
   19.7754   17.9262   24.9392 C   0  0  0  0  0  0  0  0  0  0  0  0
   20.6398   17.2665   25.0926 H   0  0  0  0  0  0  0  0  0  0  0  0
   18.9250   17.4366   25.4322 H   0  0  0  0  0  0  0  0  0  0  0  0
   20.0502   19.2843   25.6227 C   0  0  2  0  0  0  0  0  0  0  0  0
   20.9077   19.7514   25.1294 H   0  0  0  0  0  0  0  0  0  0  0  0
   20.4044   19.0763   27.1035 C   0  0  0  0  0  0  0  0  0  0  0  0
   19.5730   18.6132   27.6495 H   0  0  0  0  0  0  0  0  0  0  0  0
   21.2839   18.4284   27.2063 H   0  0  0  0  0  0  0  0  0  0  0  0
   20.6383   20.0339   27.5850 H   0  0  0  0  0  0  0  0  0  0  0  0
   18.8967   20.2394   25.4831 N   0  3  0  0  0  0  0  0  0  0  0  0
   18.0542   19.8729   25.9343 H   0  0  0  0  0  0  0  0  0  0  0  0
   18.6725   20.4079   24.4989 H   0  0  0  0  0  0  0  0  0  0  0  0
   19.1062   21.1450   25.9130 H   0  0  0  0  0  0  0  0  0  0  0  0
  1  2  1  0  0  0  0
  1  3  1  0  0  0  0
  1  4  1  0  0  0  0
  1  5  1  0  0  0  0
  5  6  1  0  0  0  0
  5  7  1  0  0  0  0
  5  8  1  0  0  0  0
  8  9  1  0  0  0  0
  8 10  1  0  0  0  0
  8 11  1  0  0  0  0
 11 12  1  0  0  0  0
 11 13  1  0  0  0  0
 11 14  1  0  0  0  0
 14 15  1  0  0  0  0
 14 16  1  0  0  0  0
 14 17  1  0  0  0  0
 17 18  1  0  0  0  0
 17 19  1  0  0  0  0
 17 20  1  0  0  0  0
 20 21  1  0  0  0  0
 20 22  1  0  0  0  0
 22 23  1  0  0  0  0
 22 24  1  0  0  0  0
 22 25  1  0  0  0  0
 20 26  1  0  0  0  0
 26 27  1  0  0  0  0
 26 28  1  0  0  0  0
 26 29  1  0  0  0  0
M  END
> <VM2 Rank>
69

> <Conf_Id>
1348

> <Probability>
0.17

> <Sum Probability>
98.24

> <Delta G>
2.462

> <G>
36.164

> <E>
-1.828

> <-TS>
37.992

> <U+W>
-25.973

> <U>
26.280

> <W>
-52.253

> <W(PB)>
-54.677

> <W(SA)>
2.424

> <Valence>
4.387

> <Coulomb>
21.061

> <VdW>
0.832

> <VdW6>
-10.644

> <VdW12>
11.476

> <Bond>
0.296

> <Angle>
1.681

> <Pdih>
2.411

> <Idih>
0.000

> <Tether>
0.000

$$$$
VeraChem MOL file


 29 28  0  0  0  0  0  0  0  0999 V2000     
   19.3103   19.9823   19.0025 C   0  0  0  0  0  0  0  0  0  0  0  0
   18.4686   19.9102   18.3016 H   0  0  0  0  0  0  0  0  0  0  0  0
   19.5690   21.0437   19.1108 H   0  0  0  0  0  0  0  0  0  0  0  0
   20.1683   19.4653   18.5533 H   0  0  0  0  0  0  0  0  0  0  0  0
   18.9394   19.3601   20.3653 C   0  0  0  0  0  0  0  0  0  0  0  0
   18.6533   18.3089   20.2203 H   0  0  0  0  0  0  0  0  0  0  0  0
   18.0584   19.8752   20.7733 H   0  0  0  0  0  0  0  0  0  0  0  0
   20.1083   19.4484   21.3713 C   0  0  0  0  0  0  0  0  0  0  0  0
   20.9870   18.9350   20.9568 H   0  0  0  0  0  0  0  0  0  0  0  0
   20.3921   20.5007   21.5113 H   0  0  0  0  0  0  0  0  0  0  0  0
   19.7414   18.8257   22.7372 C   0  0  0  0  0  0  0  0  0  0  0  0
   19.4629   17.7726   22.5929 H   0  0  0  0  0  0  0  0  0  0  0  0
   18.8556   19.3344   23.1327 H   0  0  0  0  0  0  0  0  0  0  0  0
   20.9186   18.9137   23.7397 C   0  0  0  0  0  0  0  0  0  0  0  0
   21.7867   18.4132   23.2887 H   0  0  0  0  0  0  0  0  0  0  0  0
   21.2170   19.9606   23.8897 H   0  0  0  0  0  0  0  0  0  0  0  0
   20.6342   18.2427   25.1096 C   0  0  0  0  0  0  0  0  0  0  0  0
   21.5963   17.9106   25.5223 H   0  0  0  0  0  0  0  0  0  0  0  0
   20.0361   17.3321   24.9720 H   0  0  0  0  0  0  0  0  0  0  0  0
   19.9710   19.1707   26.1543 C   0  0  2  0  0  0  0  0  0  0  0  0
   20.5915   20.0663   26.2565 H   0  0  0  0  0  0  0  0  0  0  0  0
   19.9106   18.4714   27.5220 C   0  0  0  0  0  0  0  0  0  0  0  0
   19.2977   17.5624   27.4760 H   0  0  0  0  0  0  0  0  0  0  0  0
   20.9151   18.1894   27.8613 H   0  0  0  0  0  0  0  0  0  0  0  0
   19.4789   19.1367   28.2799 H   0  0  0  0  0  0  0  0  0  0  0  0
   18.6021   19.6411   25.7521 N   0  3  0  0  0  0  0  0  0  0  0  0
   18.1955   20.2578   26.4614 H   0  0  0  0  0  0  0  0  0  0  0  0
   17.9608   18.8539   25.6236 H   0  0  0  0  0  0  0  0  0  0  0  0
   18.6360   20.1637   24.8730 H   0  0  0  0  0  0  0  0  0  0  0  0
  1  2  1  0  0  0  0
  1  3  1  0  0  0  0
  1  4  1  0  0  0  0
  1  5  1  0  0  0  0
  5  6  1  0  0  0  0
  5  7  1  0  0  0  0
  5  8  1  0  0  0  0
  8  9  1  0  0  0  0
  8 10  1  0  0  0  0
  8 11  1  0  0  0  0
 11 12  1  0  0  0  0
 11 13  1  0  0  0  0
 11 14  1  0  0  0  0
 14 15  1  0  0  0  0
 14 16  1  0  0  0  0
 14 17  1  0  0  0  0
 17 18  1  0  0  0  0
 17 19  1  0  0  0  0
 17 20  1  0  0  0  0
 20 21  1  0  0  0  0
 20 22  1  0  0  0  0
 22 23  1  0  0  0  0
 22 24  1  0  0  0  0
 22 25  1  0  0  0  0
 20 26  1  0  0  0  0
 26 27  1  0  0  0  0
 26 28  1  0  0  0  0
 26 29  1  0  0  0  0
M  END
> <VM2 Rank>
70

> <Conf_Id>
566

> <Probability>
0.13

> <Sum Probability>
98.37

> <Delta G>
2.611

> <G>
36.313

> <E>
-0.879

> <-TS>
37.192

> <U+W>
-25.023

> <U>
27.084

> <W>
-52.107

> <W(PB)>
-54.624

> <W(SA)>
2.517

> <Valence>
5.156

> <Coulomb>
20.851

> <VdW>
1.077

> <VdW6>
-8.818

> <VdW12>
9.895

> <Bond>
0.258

> <Angle>
1.437

> <Pdih>
3.462

> <Idih>
0.000

> <Tether>
0.000

$$$$
VeraChem MOL file


 29 28  0  0  0  0  0  0  0  0999 V2000     
   19.6334   18.9834   19.7668 C   0  0  0  0  0  0  0  0  0  0  0  0
   20.0263   18.0068   20.0759 H   0  0  0  0  0  0  0  0  0  0  0  0
   18.8565   18.8037   19.0125 H   0  0  0  0  0  0  0  0  0  0  0  0
   20.4452   19.5447   19.2864 H   0  0  0  0  0  0  0  0  0  0  0  0
   19.0526   19.7650   20.9666 C   0  0  0  0  0  0  0  0  0  0  0  0
   18.2545   19.1774   21.4394 H   0  0  0  0  0  0  0  0  0  0  0  0
   18.5725   20.6803   20.5933 H   0  0  0  0  0  0  0  0  0  0  0  0
   20.1211   20.1612   22.0170 C   0  0  0  0  0  0  0  0  0  0  0  0
   20.8554   20.8254   21.5410 H   0  0  0  0  0  0  0  0  0  0  0  0
   19.6436   20.7637   22.8008 H   0  0  0  0  0  0  0  0  0  0  0  0
   20.8780   18.9723   22.6677 C   0  0  0  0  0  0  0  0  0  0  0  0
   21.6070   19.3701   23.3861 H   0  0  0  0  0  0  0  0  0  0  0  0
   21.4772   18.4617   21.9024 H   0  0  0  0  0  0  0  0  0  0  0  0
   19.9761   17.9267   23.3766 C   0  0  0  0  0  0  0  0  0  0  0  0
   19.3500   17.4197   22.6306 H   0  0  0  0  0  0  0  0  0  0  0  0
   20.6132   17.1393   23.8007 H   0  0  0  0  0  0  0  0  0  0  0  0
   19.0618   18.5061   24.4891 C   0  0  0  0  0  0  0  0  0  0  0  0
   18.5076   17.6832   24.9595 H   0  0  0  0  0  0  0  0  0  0  0  0
   18.3041   19.1491   24.0238 H   0  0  0  0  0  0  0  0  0  0  0  0
   19.7997   19.3149   25.5812 C   0  0  2  0  0  0  0  0  0  0  0  0
   20.3614   20.1178   25.0946 H   0  0  0  0  0  0  0  0  0  0  0  0
   20.7864   18.4424   26.3771 C   0  0  0  0  0  0  0  0  0  0  0  0
   21.2697   19.0287   27.1682 H   0  0  0  0  0  0  0  0  0  0  0  0
   20.2748   17.5931   26.8468 H   0  0  0  0  0  0  0  0  0  0  0  0
   21.5807   18.0501   25.7315 H   0  0  0  0  0  0  0  0  0  0  0  0
   18.8270   19.9839   26.5120 N   0  3  0  0  0  0  0  0  0  0  0  0
   19.3109   20.5518   27.2134 H   0  0  0  0  0  0  0  0  0  0  0  0
   18.2586   19.2970   27.0147 H   0  0  0  0  0  0  0  0  0  0  0  0
   18.1865   20.6033   26.0071 H   0  0  0  0  0  0  0  0  0  0  0  0
  1  2  1  0  0  0  0
  1  3  1  0  0  0  0
  1  4  1  0  0  0  0
  1  5  1  0  0  0  0
  5  6  1  0  0  0  0
  5  7  1  0  0  0  0
  5  8  1  0  0  0  0
  8  9  1  0  0  0  0
  8 10  1  0  0  0  0
  8 11  1  0  0  0  0
 11 12  1  0  0  0  0
 11 13  1  0  0  0  0
 11 14  1  0  0  0  0
 14 15  1  0  0  0  0
 14 16  1  0  0  0  0
 14 17  1  0  0  0  0
 17 18  1  0  0  0  0
 17 19  1  0  0  0  0
 17 20  1  0  0  0  0
 20 21  1  0  0  0  0
 20 22  1  0  0  0  0
 22 23  1  0  0  0  0
 22 24  1  0  0  0  0
 22 25  1  0  0  0  0
 20 26  1  0  0  0  0
 26 27  1  0  0  0  0
 26 28  1  0  0  0  0
 26 29  1  0  0  0  0
M  END
> <VM2 Rank>
71

> <Conf_Id>
648

> <Probability>
0.10

> <Sum Probability>
98.48

> <Delta G>
2.765

> <G>
36.467

> <E>
-2.129

> <-TS>
38.596

> <U+W>
-26.273

> <U>
26.596

> <W>
-52.869

> <W(PB)>
-55.272

> <W(SA)>
2.403

> <Valence>
5.292

> <Coulomb>
20.508

> <VdW>
0.796

> <VdW6>
-11.980

> <VdW12>
12.776

> <Bond>
0.357

> <Angle>
2.346

> <Pdih>
2.589

> <Idih>
0.000

> <Tether>
0.000

$$$$
VeraChem MOL file


 29 28  0  0  0  0  0  0  0  0999 V2000     
   18.4969   19.6733   20.3139 C   0  0  0  0  0  0  0  0  0  0  0  0
   18.8045   19.1837   19.3808 H   0  0  0  0  0  0  0  0  0  0  0  0
   17.9289   18.9490   20.9109 H   0  0  0  0  0  0  0  0  0  0  0  0
   17.8167   20.4947   20.0544 H   0  0  0  0  0  0  0  0  0  0  0  0
   19.7219   20.2088   21.0889 C   0  0  0  0  0  0  0  0  0  0  0  0
   19.3915   20.6840   22.0220 H   0  0  0  0  0  0  0  0  0  0  0  0
   20.1949   21.0045   20.4968 H   0  0  0  0  0  0  0  0  0  0  0  0
   20.7825   19.1195   21.3890 C   0  0  0  0  0  0  0  0  0  0  0  0
   21.1717   18.7333   20.4370 H   0  0  0  0  0  0  0  0  0  0  0  0
   21.6417   19.5860   21.8887 H   0  0  0  0  0  0  0  0  0  0  0  0
   20.2781   17.9216   22.2382 C   0  0  0  0  0  0  0  0  0  0  0  0
   21.1191   17.2366   22.4130 H   0  0  0  0  0  0  0  0  0  0  0  0
   19.5480   17.3467   21.6530 H   0  0  0  0  0  0  0  0  0  0  0  0
   19.6427   18.2946   23.6025 C   0  0  0  0  0  0  0  0  0  0  0  0
   18.7411   18.8971   23.4354 H   0  0  0  0  0  0  0  0  0  0  0  0
   19.3038   17.3659   24.0790 H   0  0  0  0  0  0  0  0  0  0  0  0
   20.6193   19.0400   24.5526 C   0  0  0  0  0  0  0  0  0  0  0  0
   20.9452   19.9763   24.0834 H   0  0  0  0  0  0  0  0  0  0  0  0
   21.5264   18.4363   24.6873 H   0  0  0  0  0  0  0  0  0  0  0  0
   20.0376   19.3835   25.9443 C   0  0  2  0  0  0  0  0  0  0  0  0
   20.8050   19.9439   26.4872 H   0  0  0  0  0  0  0  0  0  0  0  0
   19.7153   18.1236   26.7668 C   0  0  0  0  0  0  0  0  0  0  0  0
   19.4423   18.3964   27.7936 H   0  0  0  0  0  0  0  0  0  0  0  0
   18.8785   17.5605   26.3372 H   0  0  0  0  0  0  0  0  0  0  0  0
   20.5866   17.4591   26.8200 H   0  0  0  0  0  0  0  0  0  0  0  0
   18.8416   20.2911   25.8578 N   0  3  0  0  0  0  0  0  0  0  0  0
   18.5058   20.5563   26.7881 H   0  0  0  0  0  0  0  0  0  0  0  0
   18.0663   19.8365   25.3692 H   0  0  0  0  0  0  0  0  0  0  0  0
   19.0617   21.1548   25.3536 H   0  0  0  0  0  0  0  0  0  0  0  0
  1  2  1  0  0  0  0
  1  3  1  0  0  0  0
  1  4  1  0  0  0  0
  1  5  1  0  0  0  0
  5  6  1  0  0  0  0
  5  7  1  0  0  0  0
  5  8  1  0  0  0  0
  8  9  1  0  0  0  0
  8 10  1  0  0  0  0
  8 11  1  0  0  0  0
 11 12  1  0  0  0  0
 11 13  1  0  0  0  0
 11 14  1  0  0  0  0
 14 15  1  0  0  0  0
 14 16  1  0  0  0  0
 14 17  1  0  0  0  0
 17 18  1  0  0  0  0
 17 19  1  0  0  0  0
 17 20  1  0  0  0  0
 20 21  1  0  0  0  0
 20 22  1  0  0  0  0
 22 23  1  0  0  0  0
 22 24  1  0  0  0  0
 22 25  1  0  0  0  0
 20 26  1  0  0  0  0
 26 27  1  0  0  0  0
 26 28  1  0  0  0  0
 26 29  1  0  0  0  0
M  END
> <VM2 Rank>
72

> <Conf_Id>
859

> <Probability>
0.10

> <Sum Probability>
98.57

> <Delta G>
2.796

> <G>
36.498

> <E>
-1.798

> <-TS>
38.296

> <U+W>
-25.942

> <U>
26.775

> <W>
-52.718

> <W(PB)>
-55.132

> <W(SA)>
2.414

> <Valence>
5.135

> <Coulomb>
20.511

> <VdW>
1.129

> <VdW6>
-11.263

> <VdW12>
12.392

> <Bond>
0.358

> <Angle>
2.222

> <Pdih>
2.556

> <Idih>
0.000

> <Tether>
0.000

$$$$
VeraChem MOL file


 29 28  0  0  0  0  0  0  0  0999 V2000     
   19.4286   19.9562   19.0046 C   0  0  0  0  0  0  0  0  0  0  0  0
   20.3309   20.5744   18.9090 H   0  0  0  0  0  0  0  0  0  0  0  0
   19.6399   18.9725   18.5654 H   0  0  0  0  0  0  0  0  0  0  0  0
   18.6335   20.4264   18.4115 H   0  0  0  0  0  0  0  0  0  0  0  0
   19.0011   19.8238   20.4816 C   0  0  0  0  0  0  0  0  0  0  0  0
   18.0787   19.2293   20.5420 H   0  0  0  0  0  0  0  0  0  0  0  0
   18.7640   20.8192   20.8827 H   0  0  0  0  0  0  0  0  0  0  0  0
   20.1038   19.1643   21.3390 C   0  0  0  0  0  0  0  0  0  0  0  0
   20.3394   18.1718   20.9305 H   0  0  0  0  0  0  0  0  0  0  0  0
   21.0242   19.7612   21.2746 H   0  0  0  0  0  0  0  0  0  0  0  0
   19.6787   19.0282   22.8185 C   0  0  0  0  0  0  0  0  0  0  0  0
   18.7641   18.4223   22.8806 H   0  0  0  0  0  0  0  0  0  0  0  0
   19.4417   20.0264   23.2061 H   0  0  0  0  0  0  0  0  0  0  0  0
   20.7925   18.3818   23.6763 C   0  0  0  0  0  0  0  0  0  0  0  0
   21.1415   17.4699   23.1720 H   0  0  0  0  0  0  0  0  0  0  0  0
   21.6591   19.0559   23.7196 H   0  0  0  0  0  0  0  0  0  0  0  0
   20.3658   17.9955   25.1171 C   0  0  0  0  0  0  0  0  0  0  0  0
   21.2080   17.4531   25.5673 H   0  0  0  0  0  0  0  0  0  0  0  0
   19.5323   17.2812   25.0867 H   0  0  0  0  0  0  0  0  0  0  0  0
   20.0038   19.1906   26.0304 C   0  0  2  0  0  0  0  0  0  0  0  0
   20.7044   20.0061   25.8264 H   0  0  0  0  0  0  0  0  0  0  0  0
   20.1429   18.7952   27.5098 C   0  0  0  0  0  0  0  0  0  0  0  0
   19.9031   19.6432   28.1631 H   0  0  0  0  0  0  0  0  0  0  0  0
   19.4700   17.9665   27.7639 H   0  0  0  0  0  0  0  0  0  0  0  0
   21.1702   18.4835   27.7363 H   0  0  0  0  0  0  0  0  0  0  0  0
   18.6189   19.7205   25.7768 N   0  3  0  0  0  0  0  0  0  0  0  0
   17.9077   19.0144   25.9847 H   0  0  0  0  0  0  0  0  0  0  0  0
   18.4986   20.0007   24.8009 H   0  0  0  0  0  0  0  0  0  0  0  0
   18.4188   20.5377   26.3607 H   0  0  0  0  0  0  0  0  0  0  0  0
  1  2  1  0  0  0  0
  1  3  1  0  0  0  0
  1  4  1  0  0  0  0
  1  5  1  0  0  0  0
  5  6  1  0  0  0  0
  5  7  1  0  0  0  0
  5  8  1  0  0  0  0
  8  9  1  0  0  0  0
  8 10  1  0  0  0  0
  8 11  1  0  0  0  0
 11 12  1  0  0  0  0
 11 13  1  0  0  0  0
 11 14  1  0  0  0  0
 14 15  1  0  0  0  0
 14 16  1  0  0  0  0
 14 17  1  0  0  0  0
 17 18  1  0  0  0  0
 17 19  1  0  0  0  0
 17 20  1  0  0  0  0
 20 21  1  0  0  0  0
 20 22  1  0  0  0  0
 22 23  1  0  0  0  0
 22 24  1  0  0  0  0
 22 25  1  0  0  0  0
 20 26  1  0  0  0  0
 26 27  1  0  0  0  0
 26 28  1  0  0  0  0
 26 29  1  0  0  0  0
M  END
> <VM2 Rank>
73

> <Conf_Id>
675

> <Probability>
0.08

> <Sum Probability>
98.66

> <Delta G>
2.891

> <G>
36.593

> <E>
-0.795

> <-TS>
37.388

> <U+W>
-24.940

> <U>
27.200

> <W>
-52.139

> <W(PB)>
-54.644

> <W(SA)>
2.504

> <Valence>
4.958

> <Coulomb>
21.196

> <VdW>
1.046

> <VdW6>
-9.034

> <VdW12>
10.080

> <Bond>
0.244

> <Angle>
1.596

> <Pdih>
3.118

> <Idih>
0.000

> <Tether>
0.000

$$$$
VeraChem MOL file


 29 28  0  0  0  0  0  0  0  0999 V2000     
   20.6176   20.6596   20.1226 C   0  0  0  0  0  0  0  0  0  0  0  0
   20.7482   20.7053   19.0336 H   0  0  0  0  0  0  0  0  0  0  0  0
   20.0490   21.5464   20.4315 H   0  0  0  0  0  0  0  0  0  0  0  0
   21.6124   20.7132   20.5839 H   0  0  0  0  0  0  0  0  0  0  0  0
   19.8865   19.3628   20.5297 C   0  0  0  0  0  0  0  0  0  0  0  0
   20.4616   18.4942   20.1793 H   0  0  0  0  0  0  0  0  0  0  0  0
   18.9107   19.3216   20.0256 H   0  0  0  0  0  0  0  0  0  0  0  0
   19.6890   19.2747   22.0590 C   0  0  0  0  0  0  0  0  0  0  0  0
   20.6724   19.3249   22.5434 H   0  0  0  0  0  0  0  0  0  0  0  0
   19.1083   20.1415   22.4032 H   0  0  0  0  0  0  0  0  0  0  0  0
   18.9716   17.9682   22.4712 C   0  0  0  0  0  0  0  0  0  0  0  0
   19.6169   17.1098   22.2389 H   0  0  0  0  0  0  0  0  0  0  0  0
   18.0702   17.8467   21.8546 H   0  0  0  0  0  0  0  0  0  0  0  0
   18.5462   17.9062   23.9612 C   0  0  0  0  0  0  0  0  0  0  0  0
   17.8043   18.6872   24.1711 H   0  0  0  0  0  0  0  0  0  0  0  0
   18.0184   16.9544   24.1117 H   0  0  0  0  0  0  0  0  0  0  0  0
   19.7172   17.9680   24.9795 C   0  0  0  0  0  0  0  0  0  0  0  0
   20.5680   17.3977   24.5836 H   0  0  0  0  0  0  0  0  0  0  0  0
   19.4116   17.4518   25.8993 H   0  0  0  0  0  0  0  0  0  0  0  0
   20.1724   19.3976   25.3548 C   0  0  2  0  0  0  0  0  0  0  0  0
   20.4088   19.9470   24.4411 H   0  0  0  0  0  0  0  0  0  0  0  0
   21.4416   19.3421   26.2195 C   0  0  0  0  0  0  0  0  0  0  0  0
   21.2593   18.8051   27.1588 H   0  0  0  0  0  0  0  0  0  0  0  0
   22.2540   18.8323   25.6866 H   0  0  0  0  0  0  0  0  0  0  0  0
   21.7886   20.3532   26.4655 H   0  0  0  0  0  0  0  0  0  0  0  0
   19.0938   20.1769   26.0565 N   0  3  0  0  0  0  0  0  0  0  0  0
   18.2545   20.2597   25.4767 H   0  0  0  0  0  0  0  0  0  0  0  0
   19.4049   21.1257   26.2836 H   0  0  0  0  0  0  0  0  0  0  0  0
   18.8194   19.7265   26.9336 H   0  0  0  0  0  0  0  0  0  0  0  0
  1  2  1  0  0  0  0
  1  3  1  0  0  0  0
  1  4  1  0  0  0  0
  1  5  1  0  0  0  0
  5  6  1  0  0  0  0
  5  7  1  0  0  0  0
  5  8  1  0  0  0  0
  8  9  1  0  0  0  0
  8 10  1  0  0  0  0
  8 11  1  0  0  0  0
 11 12  1  0  0  0  0
 11 13  1  0  0  0  0
 11 14  1  0  0  0  0
 14 15  1  0  0  0  0
 14 16  1  0  0  0  0
 14 17  1  0  0  0  0
 17 18  1  0  0  0  0
 17 19  1  0  0  0  0
 17 20  1  0  0  0  0
 20 21  1  0  0  0  0
 20 22  1  0  0  0  0
 22 23  1  0  0  0  0
 22 24  1  0  0  0  0
 22 25  1  0  0  0  0
 20 26  1  0  0  0  0
 26 27  1  0  0  0  0
 26 28  1  0  0  0  0
 26 29  1  0  0  0  0
M  END
> <VM2 Rank>
74

> <Conf_Id>
325

> <Probability>
0.07

> <Sum Probability>
98.72

> <Delta G>
3.026

> <G>
36.728

> <E>
-0.998

> <-TS>
37.725

> <U+W>
-25.142

> <U>
27.274

> <W>
-52.416

> <W(PB)>
-54.884

> <W(SA)>
2.468

> <Valence>
5.665

> <Coulomb>
20.783

> <VdW>
0.825

> <VdW6>
-9.945

> <VdW12>
10.770

> <Bond>
0.273

> <Angle>
1.789

> <Pdih>
3.602

> <Idih>
0.000

> <Tether>
0.000

$$$$
VeraChem MOL file


 29 28  0  0  0  0  0  0  0  0999 V2000     
   20.3027   19.1878   18.9157 C   0  0  0  0  0  0  0  0  0  0  0  0
   20.2596   18.4313   18.1214 H   0  0  0  0  0  0  0  0  0  0  0  0
   19.6851   20.0400   18.6035 H   0  0  0  0  0  0  0  0  0  0  0  0
   21.3423   19.5309   18.9985 H   0  0  0  0  0  0  0  0  0  0  0  0
   19.8039   18.6021   20.2536 C   0  0  0  0  0  0  0  0  0  0  0  0
   20.4189   17.7319   20.5224 H   0  0  0  0  0  0  0  0  0  0  0  0
   18.7745   18.2372   20.1306 H   0  0  0  0  0  0  0  0  0  0  0  0
   19.8543   19.6476   21.3896 C   0  0  0  0  0  0  0  0  0  0  0  0
   20.8847   20.0108   21.5071 H   0  0  0  0  0  0  0  0  0  0  0  0
   19.2402   20.5165   21.1152 H   0  0  0  0  0  0  0  0  0  0  0  0
   19.3561   19.0648   22.7312 C   0  0  0  0  0  0  0  0  0  0  0  0
   19.9641   18.1909   22.9939 H   0  0  0  0  0  0  0  0  0  0  0  0
   18.3254   18.7036   22.6106 H   0  0  0  0  0  0  0  0  0  0  0  0
   19.4006   20.1177   23.8658 C   0  0  0  0  0  0  0  0  0  0  0  0
   20.4101   20.5416   23.9583 H   0  0  0  0  0  0  0  0  0  0  0  0
   18.7465   20.9537   23.5814 H   0  0  0  0  0  0  0  0  0  0  0  0
   18.9263   19.5671   25.2369 C   0  0  0  0  0  0  0  0  0  0  0  0
   18.2157   18.7427   25.0916 H   0  0  0  0  0  0  0  0  0  0  0  0
   18.3612   20.3632   25.7396 H   0  0  0  0  0  0  0  0  0  0  0  0
   20.0636   19.1308   26.1917 C   0  0  2  0  0  0  0  0  0  0  0  0
   20.7220   19.9902   26.3515 H   0  0  0  0  0  0  0  0  0  0  0  0
   20.9097   17.9777   25.6264 C   0  0  0  0  0  0  0  0  0  0  0  0
   21.4647   18.2969   24.7367 H   0  0  0  0  0  0  0  0  0  0  0  0
   21.6493   17.6427   26.3641 H   0  0  0  0  0  0  0  0  0  0  0  0
   20.2826   17.1184   25.3582 H   0  0  0  0  0  0  0  0  0  0  0  0
   19.5189   18.7604   27.5432 N   0  3  0  0  0  0  0  0  0  0  0  0
   18.8911   17.9540   27.4849 H   0  0  0  0  0  0  0  0  0  0  0  0
   18.9911   19.5319   27.9617 H   0  0  0  0  0  0  0  0  0  0  0  0
   20.2700   18.5164   28.1950 H   0  0  0  0  0  0  0  0  0  0  0  0
  1  2  1  0  0  0  0
  1  3  1  0  0  0  0
  1  4  1  0  0  0  0
  1  5  1  0  0  0  0
  5  6  1  0  0  0  0
  5  7  1  0  0  0  0
  5  8  1  0  0  0  0
  8  9  1  0  0  0  0
  8 10  1  0  0  0  0
  8 11  1  0  0  0  0
 11 12  1  0  0  0  0
 11 13  1  0  0  0  0
 11 14  1  0  0  0  0
 14 15  1  0  0  0  0
 14 16  1  0  0  0  0
 14 17  1  0  0  0  0
 17 18  1  0  0  0  0
 17 19  1  0  0  0  0
 17 20  1  0  0  0  0
 20 21  1  0  0  0  0
 20 22  1  0  0  0  0
 22 23  1  0  0  0  0
 22 24  1  0  0  0  0
 22 25  1  0  0  0  0
 20 26  1  0  0  0  0
 26 27  1  0  0  0  0
 26 28  1  0  0  0  0
 26 29  1  0  0  0  0
M  END
> <VM2 Rank>
75

> <Conf_Id>
1373

> <Probability>
0.05

> <Sum Probability>
98.77

> <Delta G>
3.194

> <G>
36.895

> <E>
-0.780

> <-TS>
37.676

> <U+W>
-24.925

> <U>
27.070

> <W>
-51.995

> <W(PB)>
-54.496

> <W(SA)>
2.501

> <Valence>
6.259

> <Coulomb>
19.668

> <VdW>
1.143

> <VdW6>
-9.081

> <VdW12>
10.224

> <Bond>
0.251

> <Angle>
1.658

> <Pdih>
4.351

> <Idih>
0.000

> <Tether>
0.000

$$$$
VeraChem MOL file


 29 28  0  0  0  0  0  0  0  0999 V2000     
   19.1962   19.1629   19.1305 C   0  0  0  0  0  0  0  0  0  0  0  0
   18.3355   19.4467   18.5111 H   0  0  0  0  0  0  0  0  0  0  0  0
   20.0758   19.6996   18.7516 H   0  0  0  0  0  0  0  0  0  0  0  0
   19.3681   18.0869   18.9962 H   0  0  0  0  0  0  0  0  0  0  0  0
   18.9359   19.5020   20.6134 C   0  0  0  0  0  0  0  0  0  0  0  0
   18.0319   18.9777   20.9536 H   0  0  0  0  0  0  0  0  0  0  0  0
   18.7345   20.5780   20.7113 H   0  0  0  0  0  0  0  0  0  0  0  0
   20.1335   19.1121   21.5077 C   0  0  0  0  0  0  0  0  0  0  0  0
   20.3321   18.0362   21.4056 H   0  0  0  0  0  0  0  0  0  0  0  0
   21.0347   19.6361   21.1604 H   0  0  0  0  0  0  0  0  0  0  0  0
   19.8772   19.4515   22.9933 C   0  0  0  0  0  0  0  0  0  0  0  0
   18.9718   18.9265   23.3208 H   0  0  0  0  0  0  0  0  0  0  0  0
   19.6886   20.5292   23.0942 H   0  0  0  0  0  0  0  0  0  0  0  0
   21.0730   19.0461   23.8873 C   0  0  0  0  0  0  0  0  0  0  0  0
   21.1995   17.9554   23.8634 H   0  0  0  0  0  0  0  0  0  0  0  0
   21.9926   19.4605   23.4516 H   0  0  0  0  0  0  0  0  0  0  0  0
   20.9822   19.5406   25.3586 C   0  0  0  0  0  0  0  0  0  0  0  0
   20.9820   20.6384   25.3726 H   0  0  0  0  0  0  0  0  0  0  0  0
   21.9087   19.2438   25.8676 H   0  0  0  0  0  0  0  0  0  0  0  0
   19.7954   19.0268   26.2131 C   0  0  2  0  0  0  0  0  0  0  0  0
   20.0167   19.2917   27.2517 H   0  0  0  0  0  0  0  0  0  0  0  0
   19.6455   17.4968   26.1525 C   0  0  0  0  0  0  0  0  0  0  0  0
   19.3304   17.1597   25.1578 H   0  0  0  0  0  0  0  0  0  0  0  0
   20.5940   17.0036   26.3989 H   0  0  0  0  0  0  0  0  0  0  0  0
   18.8949   17.1554   26.8759 H   0  0  0  0  0  0  0  0  0  0  0  0
   18.4972   19.7173   25.8976 N   0  3  0  0  0  0  0  0  0  0  0  0
   18.2042   19.5356   24.9354 H   0  0  0  0  0  0  0  0  0  0  0  0
   18.5762   20.7321   26.0102 H   0  0  0  0  0  0  0  0  0  0  0  0
   17.7453   19.3990   26.5157 H   0  0  0  0  0  0  0  0  0  0  0  0
  1  2  1  0  0  0  0
  1  3  1  0  0  0  0
  1  4  1  0  0  0  0
  1  5  1  0  0  0  0
  5  6  1  0  0  0  0
  5  7  1  0  0  0  0
  5  8  1  0  0  0  0
  8  9  1  0  0  0  0
  8 10  1  0  0  0  0
  8 11  1  0  0  0  0
 11 12  1  0  0  0  0
 11 13  1  0  0  0  0
 11 14  1  0  0  0  0
 14 15  1  0  0  0  0
 14 16  1  0  0  0  0
 14 17  1  0  0  0  0
 17 18  1  0  0  0  0
 17 19  1  0  0  0  0
 17 20  1  0  0  0  0
 20 21  1  0  0  0  0
 20 22  1  0  0  0  0
 22 23  1  0  0  0  0
 22 24  1  0  0  0  0
 22 25  1  0  0  0  0
 20 26  1  0  0  0  0
 26 27  1  0  0  0  0
 26 28  1  0  0  0  0
 26 29  1  0  0  0  0
M  END
> <VM2 Rank>
76

> <Conf_Id>
1308

> <Probability>
0.05

> <Sum Probability>
98.82

> <Delta G>
3.230

> <G>
36.932

> <E>
-1.036

> <-TS>
37.968

> <U+W>
-25.180

> <U>
27.314

> <W>
-52.494

> <W(PB)>
-54.962

> <W(SA)>
2.468

> <Valence>
5.057

> <Coulomb>
21.358

> <VdW>
0.900

> <VdW6>
-10.072

> <VdW12>
10.972

> <Bond>
0.294

> <Angle>
2.163

> <Pdih>
2.600

> <Idih>
0.000

> <Tether>
0.000

$$$$
VeraChem MOL file


 29 28  0  0  0  0  0  0  0  0999 V2000     
   20.7630   20.3651   20.5803 C   0  0  0  0  0  0  0  0  0  0  0  0
   20.2278   21.2257   21.0020 H   0  0  0  0  0  0  0  0  0  0  0  0
   21.4111   19.9405   21.3568 H   0  0  0  0  0  0  0  0  0  0  0  0
   21.4135   20.7345   19.7770 H   0  0  0  0  0  0  0  0  0  0  0  0
   19.7777   19.3092   20.0338 C   0  0  0  0  0  0  0  0  0  0  0  0
   20.3407   18.4338   19.6811 H   0  0  0  0  0  0  0  0  0  0  0  0
   19.2733   19.7229   19.1494 H   0  0  0  0  0  0  0  0  0  0  0  0
   18.6971   18.8574   21.0490 C   0  0  0  0  0  0  0  0  0  0  0  0
   18.0621   19.7093   21.3286 H   0  0  0  0  0  0  0  0  0  0  0  0
   18.0333   18.1510   20.5317 H   0  0  0  0  0  0  0  0  0  0  0  0
   19.2508   18.1583   22.3179 C   0  0  0  0  0  0  0  0  0  0  0  0
   20.1963   17.6497   22.0844 H   0  0  0  0  0  0  0  0  0  0  0  0
   18.5465   17.3687   22.6145 H   0  0  0  0  0  0  0  0  0  0  0  0
   19.4334   19.1171   23.5198 C   0  0  0  0  0  0  0  0  0  0  0  0
   20.1083   19.9392   23.2536 H   0  0  0  0  0  0  0  0  0  0  0  0
   18.4642   19.5719   23.7631 H   0  0  0  0  0  0  0  0  0  0  0  0
   19.9944   18.3787   24.7592 C   0  0  0  0  0  0  0  0  0  0  0  0
   20.9352   17.8847   24.4815 H   0  0  0  0  0  0  0  0  0  0  0  0
   19.3009   17.5837   25.0641 H   0  0  0  0  0  0  0  0  0  0  0  0
   20.2612   19.3214   25.9525 C   0  0  2  0  0  0  0  0  0  0  0  0
   20.9337   20.1170   25.6175 H   0  0  0  0  0  0  0  0  0  0  0  0
   20.9494   18.5566   27.0943 C   0  0  0  0  0  0  0  0  0  0  0  0
   21.1748   19.2288   27.9314 H   0  0  0  0  0  0  0  0  0  0  0  0
   20.3127   17.7453   27.4690 H   0  0  0  0  0  0  0  0  0  0  0  0
   21.8965   18.1188   26.7550 H   0  0  0  0  0  0  0  0  0  0  0  0
   19.0090   19.9922   26.4472 N   0  3  0  0  0  0  0  0  0  0  0  0
   19.2074   20.6279   27.2251 H   0  0  0  0  0  0  0  0  0  0  0  0
   18.3247   19.3067   26.7781 H   0  0  0  0  0  0  0  0  0  0  0  0
   18.5627   20.5421   25.7082 H   0  0  0  0  0  0  0  0  0  0  0  0
  1  2  1  0  0  0  0
  1  3  1  0  0  0  0
  1  4  1  0  0  0  0
  1  5  1  0  0  0  0
  5  6  1  0  0  0  0
  5  7  1  0  0  0  0
  5  8  1  0  0  0  0
  8  9  1  0  0  0  0
  8 10  1  0  0  0  0
  8 11  1  0  0  0  0
 11 12  1  0  0  0  0
 11 13  1  0  0  0  0
 11 14  1  0  0  0  0
 14 15  1  0  0  0  0
 14 16  1  0  0  0  0
 14 17  1  0  0  0  0
 17 18  1  0  0  0  0
 17 19  1  0  0  0  0
 17 20  1  0  0  0  0
 20 21  1  0  0  0  0
 20 22  1  0  0  0  0
 22 23  1  0  0  0  0
 22 24  1  0  0  0  0
 22 25  1  0  0  0  0
 20 26  1  0  0  0  0
 26 27  1  0  0  0  0
 26 28  1  0  0  0  0
 26 29  1  0  0  0  0
M  END
> <VM2 Rank>
77

> <Conf_Id>
843

> <Probability>
0.05

> <Sum Probability>
98.87

> <Delta G>
3.252

> <G>
36.954

> <E>
-0.781

> <-TS>
37.736

> <U+W>
-24.926

> <U>
27.363

> <W>
-52.289

> <W(PB)>
-54.777

> <W(SA)>
2.488

> <Valence>
6.134

> <Coulomb>
20.079

> <VdW>
1.150

> <VdW6>
-9.534

> <VdW12>
10.684

> <Bond>
0.272

> <Angle>
1.638

> <Pdih>
4.224

> <Idih>
0.000

> <Tether>
0.000

$$$$
VeraChem MOL file


 29 28  0  0  0  0  0  0  0  0999 V2000     
   18.6835   18.8372   19.7172 C   0  0  0  0  0  0  0  0  0  0  0  0
   19.4405   18.1625   19.2967 H   0  0  0  0  0  0  0  0  0  0  0  0
   18.1159   18.2868   20.4776 H   0  0  0  0  0  0  0  0  0  0  0  0
   17.9856   19.1021   18.9124 H   0  0  0  0  0  0  0  0  0  0  0  0
   19.3374   20.1078   20.3058 C   0  0  0  0  0  0  0  0  0  0  0  0
   18.5633   20.7512   20.7468 H   0  0  0  0  0  0  0  0  0  0  0  0
   19.7877   20.6860   19.4869 H   0  0  0  0  0  0  0  0  0  0  0  0
   20.4302   19.8056   21.3593 C   0  0  0  0  0  0  0  0  0  0  0  0
   21.2140   19.1833   20.9058 H   0  0  0  0  0  0  0  0  0  0  0  0
   20.9121   20.7515   21.6428 H   0  0  0  0  0  0  0  0  0  0  0  0
   19.8855   19.1145   22.6322 C   0  0  0  0  0  0  0  0  0  0  0  0
   19.4718   18.1316   22.3710 H   0  0  0  0  0  0  0  0  0  0  0  0
   19.0584   19.7103   23.0328 H   0  0  0  0  0  0  0  0  0  0  0  0
   20.9945   18.9280   23.6972 C   0  0  0  0  0  0  0  0  0  0  0  0
   21.8121   18.3549   23.2383 H   0  0  0  0  0  0  0  0  0  0  0  0
   21.4253   19.8995   23.9766 H   0  0  0  0  0  0  0  0  0  0  0  0
   20.5300   18.1699   24.9689 C   0  0  0  0  0  0  0  0  0  0  0  0
   21.4086   17.6663   25.3939 H   0  0  0  0  0  0  0  0  0  0  0  0
   19.8260   17.3708   24.7014 H   0  0  0  0  0  0  0  0  0  0  0  0
   19.9277   19.0722   26.0714 C   0  0  2  0  0  0  0  0  0  0  0  0
   20.6532   19.8584   26.3018 H   0  0  0  0  0  0  0  0  0  0  0  0
   19.6843   18.2553   27.3507 C   0  0  0  0  0  0  0  0  0  0  0  0
   19.2950   18.8952   28.1522 H   0  0  0  0  0  0  0  0  0  0  0  0
   18.9609   17.4492   27.1750 H   0  0  0  0  0  0  0  0  0  0  0  0
   20.6178   17.8043   27.7098 H   0  0  0  0  0  0  0  0  0  0  0  0
   18.6629   19.7656   25.6513 N   0  3  0  0  0  0  0  0  0  0  0  0
   18.2952   20.3586   26.4008 H   0  0  0  0  0  0  0  0  0  0  0  0
   17.9332   19.0917   25.4050 H   0  0  0  0  0  0  0  0  0  0  0  0
   18.8241   20.3636   24.8368 H   0  0  0  0  0  0  0  0  0  0  0  0
  1  2  1  0  0  0  0
  1  3  1  0  0  0  0
  1  4  1  0  0  0  0
  1  5  1  0  0  0  0
  5  6  1  0  0  0  0
  5  7  1  0  0  0  0
  5  8  1  0  0  0  0
  8  9  1  0  0  0  0
  8 10  1  0  0  0  0
  8 11  1  0  0  0  0
 11 12  1  0  0  0  0
 11 13  1  0  0  0  0
 11 14  1  0  0  0  0
 14 15  1  0  0  0  0
 14 16  1  0  0  0  0
 14 17  1  0  0  0  0
 17 18  1  0  0  0  0
 17 19  1  0  0  0  0
 17 20  1  0  0  0  0
 20 21  1  0  0  0  0
 20 22  1  0  0  0  0
 22 23  1  0  0  0  0
 22 24  1  0  0  0  0
 22 25  1  0  0  0  0
 20 26  1  0  0  0  0
 26 27  1  0  0  0  0
 26 28  1  0  0  0  0
 26 29  1  0  0  0  0
M  END
> <VM2 Rank>
78

> <Conf_Id>
1326

> <Probability>
0.04

> <Sum Probability>
98.91

> <Delta G>
3.272

> <G>
36.974

> <E>
-0.301

> <-TS>
37.275

> <U+W>
-24.446

> <U>
27.677

> <W>
-52.122

> <W(PB)>
-54.606

> <W(SA)>
2.484

> <Valence>
5.650

> <Coulomb>
20.827

> <VdW>
1.200

> <VdW6>
-9.461

> <VdW12>
10.661

> <Bond>
0.293

> <Angle>
1.684

> <Pdih>
3.672

> <Idih>
0.000

> <Tether>
0.000

$$$$
VeraChem MOL file


 29 28  0  0  0  0  0  0  0  0999 V2000     
   18.4957   18.4801   19.9650 C   0  0  0  0  0  0  0  0  0  0  0  0
   17.5633   18.8015   20.4472 H   0  0  0  0  0  0  0  0  0  0  0  0
   18.6594   19.1116   19.0820 H   0  0  0  0  0  0  0  0  0  0  0  0
   18.3581   17.4472   19.6197 H   0  0  0  0  0  0  0  0  0  0  0  0
   19.6860   18.5739   20.9427 C   0  0  0  0  0  0  0  0  0  0  0  0
   20.5952   18.2139   20.4413 H   0  0  0  0  0  0  0  0  0  0  0  0
   19.5090   17.8991   21.7886 H   0  0  0  0  0  0  0  0  0  0  0  0
   19.9061   20.0248   21.4348 C   0  0  0  0  0  0  0  0  0  0  0  0
   20.1074   20.6550   20.5574 H   0  0  0  0  0  0  0  0  0  0  0  0
   18.9860   20.4202   21.8866 H   0  0  0  0  0  0  0  0  0  0  0  0
   21.0917   20.1699   22.4243 C   0  0  0  0  0  0  0  0  0  0  0  0
   21.5799   21.1355   22.2326 H   0  0  0  0  0  0  0  0  0  0  0  0
   21.8555   19.4072   22.2194 H   0  0  0  0  0  0  0  0  0  0  0  0
   20.6934   20.1391   23.9224 C   0  0  0  0  0  0  0  0  0  0  0  0
   21.5954   20.3242   24.5221 H   0  0  0  0  0  0  0  0  0  0  0  0
   20.0103   20.9742   24.1277 H   0  0  0  0  0  0  0  0  0  0  0  0
   20.0493   18.8078   24.3819 C   0  0  0  0  0  0  0  0  0  0  0  0
   20.6800   17.9730   24.0488 H   0  0  0  0  0  0  0  0  0  0  0  0
   19.0699   18.6821   23.9033 H   0  0  0  0  0  0  0  0  0  0  0  0
   19.8784   18.7225   25.9137 C   0  0  2  0  0  0  0  0  0  0  0  0
   20.8592   18.8674   26.3770 H   0  0  0  0  0  0  0  0  0  0  0  0
   19.3544   17.3349   26.3164 C   0  0  0  0  0  0  0  0  0  0  0  0
   20.0393   16.5468   25.9795 H   0  0  0  0  0  0  0  0  0  0  0  0
   19.2657   17.2548   27.4069 H   0  0  0  0  0  0  0  0  0  0  0  0
   18.3675   17.1404   25.8778 H   0  0  0  0  0  0  0  0  0  0  0  0
   18.9812   19.8028   26.4528 N   0  3  0  0  0  0  0  0  0  0  0  0
   18.8970   19.7454   27.4718 H   0  0  0  0  0  0  0  0  0  0  0  0
   18.0376   19.7333   26.0625 H   0  0  0  0  0  0  0  0  0  0  0  0
   19.3412   20.7340   26.2270 H   0  0  0  0  0  0  0  0  0  0  0  0
  1  2  1  0  0  0  0
  1  3  1  0  0  0  0
  1  4  1  0  0  0  0
  1  5  1  0  0  0  0
  5  6  1  0  0  0  0
  5  7  1  0  0  0  0
  5  8  1  0  0  0  0
  8  9  1  0  0  0  0
  8 10  1  0  0  0  0
  8 11  1  0  0  0  0
 11 12  1  0  0  0  0
 11 13  1  0  0  0  0
 11 14  1  0  0  0  0
 14 15  1  0  0  0  0
 14 16  1  0  0  0  0
 14 17  1  0  0  0  0
 17 18  1  0  0  0  0
 17 19  1  0  0  0  0
 17 20  1  0  0  0  0
 20 21  1  0  0  0  0
 20 22  1  0  0  0  0
 22 23  1  0  0  0  0
 22 24  1  0  0  0  0
 22 25  1  0  0  0  0
 20 26  1  0  0  0  0
 26 27  1  0  0  0  0
 26 28  1  0  0  0  0
 26 29  1  0  0  0  0
M  END
> <VM2 Rank>
79

> <Conf_Id>
486

> <Probability>
0.04

> <Sum Probability>
98.95

> <Delta G>
3.309

> <G>
37.011

> <E>
-0.768

> <-TS>
37.778

> <U+W>
-24.912

> <U>
27.426

> <W>
-52.338

> <W(PB)>
-54.832

> <W(SA)>
2.495

> <Valence>
6.169

> <Coulomb>
20.212

> <VdW>
1.045

> <VdW6>
-9.697

> <VdW12>
10.741

> <Bond>
0.273

> <Angle>
1.616

> <Pdih>
4.280

> <Idih>
0.000

> <Tether>
0.000

$$$$
VeraChem MOL file


 29 28  0  0  0  0  0  0  0  0999 V2000     
   19.0341   19.2830   19.0641 C   0  0  0  0  0  0  0  0  0  0  0  0
   19.0601   18.5781   18.2230 H   0  0  0  0  0  0  0  0  0  0  0  0
   17.9847   19.5445   19.2524 H   0  0  0  0  0  0  0  0  0  0  0  0
   19.5638   20.1942   18.7568 H   0  0  0  0  0  0  0  0  0  0  0  0
   19.6840   18.6600   20.3176 C   0  0  0  0  0  0  0  0  0  0  0  0
   20.7213   18.3782   20.0886 H   0  0  0  0  0  0  0  0  0  0  0  0
   19.1543   17.7335   20.5804 H   0  0  0  0  0  0  0  0  0  0  0  0
   19.6604   19.6327   21.5173 C   0  0  0  0  0  0  0  0  0  0  0  0
   20.1887   20.5580   21.2488 H   0  0  0  0  0  0  0  0  0  0  0  0
   18.6217   19.9129   21.7407 H   0  0  0  0  0  0  0  0  0  0  0  0
   20.3098   19.0122   22.7747 C   0  0  0  0  0  0  0  0  0  0  0  0
   21.3485   18.7343   22.5480 H   0  0  0  0  0  0  0  0  0  0  0  0
   19.7858   18.0835   23.0293 H   0  0  0  0  0  0  0  0  0  0  0  0
   20.2903   19.9924   23.9731 C   0  0  0  0  0  0  0  0  0  0  0  0
   20.8459   20.8948   23.6825 H   0  0  0  0  0  0  0  0  0  0  0  0
   19.2636   20.3238   24.1755 H   0  0  0  0  0  0  0  0  0  0  0  0
   20.9427   19.4126   25.2593 C   0  0  0  0  0  0  0  0  0  0  0  0
   21.4641   20.2277   25.7782 H   0  0  0  0  0  0  0  0  0  0  0  0
   21.7278   18.6942   24.9890 H   0  0  0  0  0  0  0  0  0  0  0  0
   19.9762   18.7586   26.2778 C   0  0  2  0  0  0  0  0  0  0  0  0
   20.5857   18.3957   27.1112 H   0  0  0  0  0  0  0  0  0  0  0  0
   19.2217   17.5514   25.6982 C   0  0  0  0  0  0  0  0  0  0  0  0
   18.4949   17.8595   24.9373 H   0  0  0  0  0  0  0  0  0  0  0  0
   19.9191   16.8352   25.2464 H   0  0  0  0  0  0  0  0  0  0  0  0
   18.6732   17.0268   26.4901 H   0  0  0  0  0  0  0  0  0  0  0  0
   19.0168   19.7532   26.8719 N   0  3  0  0  0  0  0  0  0  0  0  0
   19.5108   20.5356   27.3107 H   0  0  0  0  0  0  0  0  0  0  0  0
   18.4281   19.3216   27.5902 H   0  0  0  0  0  0  0  0  0  0  0  0
   18.3954   20.1425   26.1587 H   0  0  0  0  0  0  0  0  0  0  0  0
  1  2  1  0  0  0  0
  1  3  1  0  0  0  0
  1  4  1  0  0  0  0
  1  5  1  0  0  0  0
  5  6  1  0  0  0  0
  5  7  1  0  0  0  0
  5  8  1  0  0  0  0
  8  9  1  0  0  0  0
  8 10  1  0  0  0  0
  8 11  1  0  0  0  0
 11 12  1  0  0  0  0
 11 13  1  0  0  0  0
 11 14  1  0  0  0  0
 14 15  1  0  0  0  0
 14 16  1  0  0  0  0
 14 17  1  0  0  0  0
 17 18  1  0  0  0  0
 17 19  1  0  0  0  0
 17 20  1  0  0  0  0
 20 21  1  0  0  0  0
 20 22  1  0  0  0  0
 22 23  1  0  0  0  0
 22 24  1  0  0  0  0
 22 25  1  0  0  0  0
 20 26  1  0  0  0  0
 26 27  1  0  0  0  0
 26 28  1  0  0  0  0
 26 29  1  0  0  0  0
M  END
> <VM2 Rank>
80

> <Conf_Id>
153

> <Probability>
0.04

> <Sum Probability>
98.99

> <Delta G>
3.339

> <G>
37.041

> <E>
-0.701

> <-TS>
37.741

> <U+W>
-24.845

> <U>
27.319

> <W>
-52.164

> <W(PB)>
-54.657

> <W(SA)>
2.493

> <Valence>
6.250

> <Coulomb>
19.964

> <VdW>
1.105

> <VdW6>
-9.528

> <VdW12>
10.633

> <Bond>
0.282

> <Angle>
1.801

> <Pdih>
4.166

> <Idih>
0.000

> <Tether>
0.000

$$$$
VeraChem MOL file


 29 28  0  0  0  0  0  0  0  0999 V2000     
   19.7808   20.8984   20.5897 C   0  0  0  0  0  0  0  0  0  0  0  0
   18.7829   21.1342   20.1977 H   0  0  0  0  0  0  0  0  0  0  0  0
   19.7859   21.1305   21.6602 H   0  0  0  0  0  0  0  0  0  0  0  0
   20.4978   21.5704   20.1007 H   0  0  0  0  0  0  0  0  0  0  0  0
   20.1477   19.4220   20.3116 C   0  0  0  0  0  0  0  0  0  0  0  0
   21.1735   19.2135   20.6461 H   0  0  0  0  0  0  0  0  0  0  0  0
   20.1490   19.2735   19.2226 H   0  0  0  0  0  0  0  0  0  0  0  0
   19.1580   18.4111   20.9460 C   0  0  0  0  0  0  0  0  0  0  0  0
   18.1538   18.8521   21.0109 H   0  0  0  0  0  0  0  0  0  0  0  0
   19.0611   17.5547   20.2645 H   0  0  0  0  0  0  0  0  0  0  0  0
   19.5883   17.8585   22.3294 C   0  0  0  0  0  0  0  0  0  0  0  0
   20.5444   17.3267   22.2279 H   0  0  0  0  0  0  0  0  0  0  0  0
   18.8515   17.1058   22.6424 H   0  0  0  0  0  0  0  0  0  0  0  0
   19.7112   18.9320   23.4352 C   0  0  0  0  0  0  0  0  0  0  0  0
   20.5379   19.6133   23.1954 H   0  0  0  0  0  0  0  0  0  0  0  0
   18.7907   19.5298   23.4615 H   0  0  0  0  0  0  0  0  0  0  0  0
   19.9717   18.2972   24.8228 C   0  0  0  0  0  0  0  0  0  0  0  0
   20.8610   17.6560   24.7579 H   0  0  0  0  0  0  0  0  0  0  0  0
   19.1328   17.6436   25.0965 H   0  0  0  0  0  0  0  0  0  0  0  0
   20.1948   19.3474   25.9324 C   0  0  2  0  0  0  0  0  0  0  0  0
   21.0181   20.0002   25.6264 H   0  0  0  0  0  0  0  0  0  0  0  0
   20.5885   18.6586   27.2488 C   0  0  0  0  0  0  0  0  0  0  0  0
   20.7841   19.4012   28.0322 H   0  0  0  0  0  0  0  0  0  0  0  0
   19.7921   17.9912   27.6013 H   0  0  0  0  0  0  0  0  0  0  0  0
   21.5010   18.0633   27.1195 H   0  0  0  0  0  0  0  0  0  0  0  0
   18.9948   20.2309   26.1381 N   0  3  0  0  0  0  0  0  0  0  0  0
   18.7468   20.7301   25.2797 H   0  0  0  0  0  0  0  0  0  0  0  0
   19.1676   20.9336   26.8627 H   0  0  0  0  0  0  0  0  0  0  0  0
   18.1770   19.6873   26.4267 H   0  0  0  0  0  0  0  0  0  0  0  0
  1  2  1  0  0  0  0
  1  3  1  0  0  0  0
  1  4  1  0  0  0  0
  1  5  1  0  0  0  0
  5  6  1  0  0  0  0
  5  7  1  0  0  0  0
  5  8  1  0  0  0  0
  8  9  1  0  0  0  0
  8 10  1  0  0  0  0
  8 11  1  0  0  0  0
 11 12  1  0  0  0  0
 11 13  1  0  0  0  0
 11 14  1  0  0  0  0
 14 15  1  0  0  0  0
 14 16  1  0  0  0  0
 14 17  1  0  0  0  0
 17 18  1  0  0  0  0
 17 19  1  0  0  0  0
 17 20  1  0  0  0  0
 20 21  1  0  0  0  0
 20 22  1  0  0  0  0
 22 23  1  0  0  0  0
 22 24  1  0  0  0  0
 22 25  1  0  0  0  0
 20 26  1  0  0  0  0
 26 27  1  0  0  0  0
 26 28  1  0  0  0  0
 26 29  1  0  0  0  0
M  END
> <VM2 Rank>
81

> <Conf_Id>
1340

> <Probability>
0.04

> <Sum Probability>
99.03

> <Delta G>
3.373

> <G>
37.075

> <E>
-0.654

> <-TS>
37.728

> <U+W>
-24.798

> <U>
27.548

> <W>
-52.345

> <W(PB)>
-54.804

> <W(SA)>
2.459

> <Valence>
6.159

> <Coulomb>
20.244

> <VdW>
1.144

> <VdW6>
-9.545

> <VdW12>
10.689

> <Bond>
0.271

> <Angle>
1.675

> <Pdih>
4.213

> <Idih>
0.000

> <Tether>
0.000

$$$$
VeraChem MOL file


 29 28  0  0  0  0  0  0  0  0999 V2000     
   21.0713   19.4453   19.7785 C   0  0  0  0  0  0  0  0  0  0  0  0
   20.5672   18.9462   18.9407 H   0  0  0  0  0  0  0  0  0  0  0  0
   21.0173   20.5294   19.6135 H   0  0  0  0  0  0  0  0  0  0  0  0
   22.1293   19.1533   19.7570 H   0  0  0  0  0  0  0  0  0  0  0  0
   20.4263   19.0570   21.1258 C   0  0  0  0  0  0  0  0  0  0  0  0
   20.9814   19.5456   21.9374 H   0  0  0  0  0  0  0  0  0  0  0  0
   20.5192   17.9723   21.2748 H   0  0  0  0  0  0  0  0  0  0  0  0
   18.9373   19.4679   21.1842 C   0  0  0  0  0  0  0  0  0  0  0  0
   18.8579   20.5615   21.1140 H   0  0  0  0  0  0  0  0  0  0  0  0
   18.4222   19.0674   20.3002 H   0  0  0  0  0  0  0  0  0  0  0  0
   18.1854   18.9773   22.4484 C   0  0  0  0  0  0  0  0  0  0  0  0
   18.1674   17.8791   22.4753 H   0  0  0  0  0  0  0  0  0  0  0  0
   17.1359   19.2874   22.3490 H   0  0  0  0  0  0  0  0  0  0  0  0
   18.7309   19.5407   23.7864 C   0  0  0  0  0  0  0  0  0  0  0  0
   19.2055   20.5173   23.6177 H   0  0  0  0  0  0  0  0  0  0  0  0
   17.8772   19.7271   24.4516 H   0  0  0  0  0  0  0  0  0  0  0  0
   19.7144   18.5776   24.5009 C   0  0  0  0  0  0  0  0  0  0  0  0
   20.5185   18.2912   23.8136 H   0  0  0  0  0  0  0  0  0  0  0  0
   19.1919   17.6489   24.7662 H   0  0  0  0  0  0  0  0  0  0  0  0
   20.3452   19.1953   25.7675 C   0  0  2  0  0  0  0  0  0  0  0  0
   20.8376   20.1305   25.4838 H   0  0  0  0  0  0  0  0  0  0  0  0
   21.4062   18.2495   26.3521 C   0  0  0  0  0  0  0  0  0  0  0  0
   21.8839   18.6982   27.2318 H   0  0  0  0  0  0  0  0  0  0  0  0
   20.9619   17.2930   26.6549 H   0  0  0  0  0  0  0  0  0  0  0  0
   22.1929   18.0429   25.6157 H   0  0  0  0  0  0  0  0  0  0  0  0
   19.3189   19.5453   26.8101 N   0  3  0  0  0  0  0  0  0  0  0  0
   19.7528   19.9721   27.6337 H   0  0  0  0  0  0  0  0  0  0  0  0
   18.8108   18.7151   27.1266 H   0  0  0  0  0  0  0  0  0  0  0  0
   18.6298   20.2098   26.4477 H   0  0  0  0  0  0  0  0  0  0  0  0
  1  2  1  0  0  0  0
  1  3  1  0  0  0  0
  1  4  1  0  0  0  0
  1  5  1  0  0  0  0
  5  6  1  0  0  0  0
  5  7  1  0  0  0  0
  5  8  1  0  0  0  0
  8  9  1  0  0  0  0
  8 10  1  0  0  0  0
  8 11  1  0  0  0  0
 11 12  1  0  0  0  0
 11 13  1  0  0  0  0
 11 14  1  0  0  0  0
 14 15  1  0  0  0  0
 14 16  1  0  0  0  0
 14 17  1  0  0  0  0
 17 18  1  0  0  0  0
 17 19  1  0  0  0  0
 17 20  1  0  0  0  0
 20 21  1  0  0  0  0
 20 22  1  0  0  0  0
 22 23  1  0  0  0  0
 22 24  1  0  0  0  0
 22 25  1  0  0  0  0
 20 26  1  0  0  0  0
 26 27  1  0  0  0  0
 26 28  1  0  0  0  0
 26 29  1  0  0  0  0
M  END
> <VM2 Rank>
82

> <Conf_Id>
496

> <Probability>
0.04

> <Sum Probability>
99.07

> <Delta G>
3.398

> <G>
37.099

> <E>
-0.693

> <-TS>
37.792

> <U+W>
-24.838

> <U>
27.471

> <W>
-52.309

> <W(PB)>
-54.792

> <W(SA)>
2.483

> <Valence>
6.231

> <Coulomb>
20.131

> <VdW>
1.110

> <VdW6>
-9.661

> <VdW12>
10.770

> <Bond>
0.280

> <Angle>
1.592

> <Pdih>
4.359

> <Idih>
0.000

> <Tether>
0.000

$$$$
VeraChem MOL file


 29 28  0  0  0  0  0  0  0  0999 V2000     
   18.3705   20.0949   20.7871 C   0  0  0  0  0  0  0  0  0  0  0  0
   17.5561   20.2932   20.0784 H   0  0  0  0  0  0  0  0  0  0  0  0
   17.9455   19.5251   21.6226 H   0  0  0  0  0  0  0  0  0  0  0  0
   18.7282   21.0607   21.1667 H   0  0  0  0  0  0  0  0  0  0  0  0
   19.5080   19.3119   20.0960 C   0  0  0  0  0  0  0  0  0  0  0  0
   19.7856   19.8370   19.1714 H   0  0  0  0  0  0  0  0  0  0  0  0
   19.1349   18.3259   19.7855 H   0  0  0  0  0  0  0  0  0  0  0  0
   20.7812   19.1360   20.9625 C   0  0  0  0  0  0  0  0  0  0  0  0
   21.5279   18.6128   20.3493 H   0  0  0  0  0  0  0  0  0  0  0  0
   21.2208   20.1166   21.1911 H   0  0  0  0  0  0  0  0  0  0  0  0
   20.5711   18.3224   22.2660 C   0  0  0  0  0  0  0  0  0  0  0  0
   21.4738   17.7238   22.4510 H   0  0  0  0  0  0  0  0  0  0  0  0
   19.7516   17.6029   22.1324 H   0  0  0  0  0  0  0  0  0  0  0  0
   20.3157   19.2083   23.5098 C   0  0  0  0  0  0  0  0  0  0  0  0
   21.1764   19.8737   23.6643 H   0  0  0  0  0  0  0  0  0  0  0  0
   19.4473   19.8536   23.3383 H   0  0  0  0  0  0  0  0  0  0  0  0
   20.0919   18.3556   24.7823 C   0  0  0  0  0  0  0  0  0  0  0  0
   20.9512   17.6849   24.9158 H   0  0  0  0  0  0  0  0  0  0  0  0
   19.2110   17.7138   24.6486 H   0  0  0  0  0  0  0  0  0  0  0  0
   19.9238   19.2090   26.0580 C   0  0  2  0  0  0  0  0  0  0  0  0
   20.8004   19.8570   26.1553 H   0  0  0  0  0  0  0  0  0  0  0  0
   19.8513   18.3056   27.2993 C   0  0  0  0  0  0  0  0  0  0  0  0
   18.9844   17.6346   27.2518 H   0  0  0  0  0  0  0  0  0  0  0  0
   20.7553   17.6903   27.3871 H   0  0  0  0  0  0  0  0  0  0  0  0
   19.7684   18.9071   28.2130 H   0  0  0  0  0  0  0  0  0  0  0  0
   18.7225   20.1122   25.9929 N   0  3  0  0  0  0  0  0  0  0  0  0
   17.8568   19.5745   25.8981 H   0  0  0  0  0  0  0  0  0  0  0  0
   18.7785   20.7517   25.1957 H   0  0  0  0  0  0  0  0  0  0  0  0
   18.6380   20.6832   26.8388 H   0  0  0  0  0  0  0  0  0  0  0  0
  1  2  1  0  0  0  0
  1  3  1  0  0  0  0
  1  4  1  0  0  0  0
  1  5  1  0  0  0  0
  5  6  1  0  0  0  0
  5  7  1  0  0  0  0
  5  8  1  0  0  0  0
  8  9  1  0  0  0  0
  8 10  1  0  0  0  0
  8 11  1  0  0  0  0
 11 12  1  0  0  0  0
 11 13  1  0  0  0  0
 11 14  1  0  0  0  0
 14 15  1  0  0  0  0
 14 16  1  0  0  0  0
 14 17  1  0  0  0  0
 17 18  1  0  0  0  0
 17 19  1  0  0  0  0
 17 20  1  0  0  0  0
 20 21  1  0  0  0  0
 20 22  1  0  0  0  0
 22 23  1  0  0  0  0
 22 24  1  0  0  0  0
 22 25  1  0  0  0  0
 20 26  1  0  0  0  0
 26 27  1  0  0  0  0
 26 28  1  0  0  0  0
 26 29  1  0  0  0  0
M  END
> <VM2 Rank>
83

> <Conf_Id>
1291

> <Probability>
0.03

> <Sum Probability>
99.10

> <Delta G>
3.420

> <G>
37.122

> <E>
-0.626

> <-TS>
37.749

> <U+W>
-24.771

> <U>
27.668

> <W>
-52.439

> <W(PB)>
-54.941

> <W(SA)>
2.501

> <Valence>
6.132

> <Coulomb>
20.412

> <VdW>
1.124

> <VdW6>
-9.582

> <VdW12>
10.706

> <Bond>
0.273

> <Angle>
1.615

> <Pdih>
4.244

> <Idih>
0.000

> <Tether>
0.000

$$$$
VeraChem MOL file


 29 28  0  0  0  0  0  0  0  0999 V2000     
   19.8289   20.9176   20.1512 C   0  0  0  0  0  0  0  0  0  0  0  0
   19.1031   21.5475   20.6818 H   0  0  0  0  0  0  0  0  0  0  0  0
   20.8370   21.2775   20.3951 H   0  0  0  0  0  0  0  0  0  0  0  0
   19.6725   21.0577   19.0737 H   0  0  0  0  0  0  0  0  0  0  0  0
   19.6617   19.4327   20.5374 C   0  0  0  0  0  0  0  0  0  0  0  0
   20.3767   18.8252   19.9651 H   0  0  0  0  0  0  0  0  0  0  0  0
   18.6564   19.0924   20.2523 H   0  0  0  0  0  0  0  0  0  0  0  0
   19.8785   19.2084   22.0502 C   0  0  0  0  0  0  0  0  0  0  0  0
   20.8869   19.5439   22.3291 H   0  0  0  0  0  0  0  0  0  0  0  0
   19.1615   19.8283   22.6031 H   0  0  0  0  0  0  0  0  0  0  0  0
   19.6950   17.7241   22.4430 C   0  0  0  0  0  0  0  0  0  0  0  0
   20.2904   17.0994   21.7627 H   0  0  0  0  0  0  0  0  0  0  0  0
   18.6475   17.4322   22.2854 H   0  0  0  0  0  0  0  0  0  0  0  0
   20.1139   17.3837   23.8968 C   0  0  0  0  0  0  0  0  0  0  0  0
   19.9786   16.3016   24.0309 H   0  0  0  0  0  0  0  0  0  0  0  0
   21.1888   17.5592   24.0258 H   0  0  0  0  0  0  0  0  0  0  0  0
   19.2936   18.1050   25.0015 C   0  0  0  0  0  0  0  0  0  0  0  0
   19.3084   17.4895   25.9109 H   0  0  0  0  0  0  0  0  0  0  0  0
   18.2422   18.1459   24.6876 H   0  0  0  0  0  0  0  0  0  0  0  0
   19.7798   19.5281   25.3697 C   0  0  2  0  0  0  0  0  0  0  0  0
   19.9002   20.1112   24.4542 H   0  0  0  0  0  0  0  0  0  0  0  0
   21.1308   19.5045   26.1075 C   0  0  0  0  0  0  0  0  0  0  0  0
   21.0743   18.8980   27.0200 H   0  0  0  0  0  0  0  0  0  0  0  0
   21.9277   19.0979   25.4751 H   0  0  0  0  0  0  0  0  0  0  0  0
   21.4312   20.5200   26.3937 H   0  0  0  0  0  0  0  0  0  0  0  0
   18.7539   20.2519   26.1967 N   0  3  0  0  0  0  0  0  0  0  0  0
   17.8560   20.3206   25.7089 H   0  0  0  0  0  0  0  0  0  0  0  0
   19.0554   21.2056   26.4165 H   0  0  0  0  0  0  0  0  0  0  0  0
   18.5852   19.7728   27.0854 H   0  0  0  0  0  0  0  0  0  0  0  0
  1  2  1  0  0  0  0
  1  3  1  0  0  0  0
  1  4  1  0  0  0  0
  1  5  1  0  0  0  0
  5  6  1  0  0  0  0
  5  7  1  0  0  0  0
  5  8  1  0  0  0  0
  8  9  1  0  0  0  0
  8 10  1  0  0  0  0
  8 11  1  0  0  0  0
 11 12  1  0  0  0  0
 11 13  1  0  0  0  0
 11 14  1  0  0  0  0
 14 15  1  0  0  0  0
 14 16  1  0  0  0  0
 14 17  1  0  0  0  0
 17 18  1  0  0  0  0
 17 19  1  0  0  0  0
 17 20  1  0  0  0  0
 20 21  1  0  0  0  0
 20 22  1  0  0  0  0
 22 23  1  0  0  0  0
 22 24  1  0  0  0  0
 22 25  1  0  0  0  0
 20 26  1  0  0  0  0
 26 27  1  0  0  0  0
 26 28  1  0  0  0  0
 26 29  1  0  0  0  0
M  END
> <VM2 Rank>
84

> <Conf_Id>
287

> <Probability>
0.03

> <Sum Probability>
99.13

> <Delta G>
3.442

> <G>
37.144

> <E>
-0.497

> <-TS>
37.641

> <U+W>
-24.641

> <U>
27.991

> <W>
-52.632

> <W(PB)>
-55.124

> <W(SA)>
2.492

> <Valence>
6.342

> <Coulomb>
20.686

> <VdW>
0.963

> <VdW6>
-10.031

> <VdW12>
10.993

> <Bond>
0.289

> <Angle>
2.141

> <Pdih>
3.912

> <Idih>
0.000

> <Tether>
0.000

$$$$
VeraChem MOL file


 29 28  0  0  0  0  0  0  0  0999 V2000     
   20.7724   18.3366   19.8234 C   0  0  0  0  0  0  0  0  0  0  0  0
   20.5812   18.9691   18.9467 H   0  0  0  0  0  0  0  0  0  0  0  0
   21.7739   18.5744   20.2049 H   0  0  0  0  0  0  0  0  0  0  0  0
   20.7782   17.2908   19.4897 H   0  0  0  0  0  0  0  0  0  0  0  0
   19.6990   18.5557   20.9104 C   0  0  0  0  0  0  0  0  0  0  0  0
   19.8949   17.8790   21.7508 H   0  0  0  0  0  0  0  0  0  0  0  0
   18.7150   18.2764   20.5086 H   0  0  0  0  0  0  0  0  0  0  0  0
   19.6636   20.0276   21.3880 C   0  0  0  0  0  0  0  0  0  0  0  0
   20.6591   20.3458   21.7267 H   0  0  0  0  0  0  0  0  0  0  0  0
   19.4218   20.6609   20.5232 H   0  0  0  0  0  0  0  0  0  0  0  0
   18.6126   20.2898   22.4981 C   0  0  0  0  0  0  0  0  0  0  0  0
   17.7808   19.5772   22.4116 H   0  0  0  0  0  0  0  0  0  0  0  0
   18.1713   21.2809   22.3237 H   0  0  0  0  0  0  0  0  0  0  0  0
   19.1758   20.2780   23.9429 C   0  0  0  0  0  0  0  0  0  0  0  0
   19.9290   21.0714   24.0460 H   0  0  0  0  0  0  0  0  0  0  0  0
   18.3569   20.5429   24.6243 H   0  0  0  0  0  0  0  0  0  0  0  0
   19.7945   18.9248   24.3743 C   0  0  0  0  0  0  0  0  0  0  0  0
   20.6615   18.7111   23.7371 H   0  0  0  0  0  0  0  0  0  0  0  0
   19.0706   18.1150   24.2138 H   0  0  0  0  0  0  0  0  0  0  0  0
   20.2647   18.9175   25.8452 C   0  0  2  0  0  0  0  0  0  0  0  0
   20.9502   19.7581   25.9907 H   0  0  0  0  0  0  0  0  0  0  0  0
   21.0226   17.6171   26.1564 C   0  0  0  0  0  0  0  0  0  0  0  0
   20.3766   16.7399   26.0249 H   0  0  0  0  0  0  0  0  0  0  0  0
   21.8911   17.5039   25.4956 H   0  0  0  0  0  0  0  0  0  0  0  0
   21.3897   17.6194   27.1902 H   0  0  0  0  0  0  0  0  0  0  0  0
   19.1308   19.1089   26.8153 N   0  3  0  0  0  0  0  0  0  0  0  0
   18.6432   19.9937   26.6513 H   0  0  0  0  0  0  0  0  0  0  0  0
   19.4645   19.1181   27.7833 H   0  0  0  0  0  0  0  0  0  0  0  0
   18.4411   18.3569   26.7357 H   0  0  0  0  0  0  0  0  0  0  0  0
  1  2  1  0  0  0  0
  1  3  1  0  0  0  0
  1  4  1  0  0  0  0
  1  5  1  0  0  0  0
  5  6  1  0  0  0  0
  5  7  1  0  0  0  0
  5  8  1  0  0  0  0
  8  9  1  0  0  0  0
  8 10  1  0  0  0  0
  8 11  1  0  0  0  0
 11 12  1  0  0  0  0
 11 13  1  0  0  0  0
 11 14  1  0  0  0  0
 14 15  1  0  0  0  0
 14 16  1  0  0  0  0
 14 17  1  0  0  0  0
 17 18  1  0  0  0  0
 17 19  1  0  0  0  0
 17 20  1  0  0  0  0
 20 21  1  0  0  0  0
 20 22  1  0  0  0  0
 22 23  1  0  0  0  0
 22 24  1  0  0  0  0
 22 25  1  0  0  0  0
 20 26  1  0  0  0  0
 26 27  1  0  0  0  0
 26 28  1  0  0  0  0
 26 29  1  0  0  0  0
M  END
> <VM2 Rank>
85

> <Conf_Id>
282

> <Probability>
0.03

> <Sum Probability>
99.17

> <Delta G>
3.448

> <G>
37.150

> <E>
-0.619

> <-TS>
37.769

> <U+W>
-24.763

> <U>
27.456

> <W>
-52.219

> <W(PB)>
-54.678

> <W(SA)>
2.459

> <Valence>
6.249

> <Coulomb>
20.070

> <VdW>
1.137

> <VdW6>
-9.668

> <VdW12>
10.805

> <Bond>
0.280

> <Angle>
1.673

> <Pdih>
4.296

> <Idih>
0.000

> <Tether>
0.000

$$$$
VeraChem MOL file


 29 28  0  0  0  0  0  0  0  0999 V2000     
   19.2007   20.8419   20.6388 C   0  0  0  0  0  0  0  0  0  0  0  0
   19.2965   21.0886   21.7018 H   0  0  0  0  0  0  0  0  0  0  0  0
   20.0556   21.2848   20.1115 H   0  0  0  0  0  0  0  0  0  0  0  0
   18.2907   21.3288   20.2649 H   0  0  0  0  0  0  0  0  0  0  0  0
   19.1353   19.3157   20.3980 C   0  0  0  0  0  0  0  0  0  0  0  0
   19.0198   19.1484   19.3180 H   0  0  0  0  0  0  0  0  0  0  0  0
   18.2360   18.8927   20.8670 H   0  0  0  0  0  0  0  0  0  0  0  0
   20.4009   18.5619   20.8818 C   0  0  0  0  0  0  0  0  0  0  0  0
   20.5969   17.7385   20.1811 H   0  0  0  0  0  0  0  0  0  0  0  0
   21.2804   19.2175   20.8206 H   0  0  0  0  0  0  0  0  0  0  0  0
   20.2911   17.9486   22.3017 C   0  0  0  0  0  0  0  0  0  0  0  0
   21.2132   17.3866   22.5043 H   0  0  0  0  0  0  0  0  0  0  0  0
   19.4749   17.2133   22.3191 H   0  0  0  0  0  0  0  0  0  0  0  0
   20.0733   18.9845   23.4288 C   0  0  0  0  0  0  0  0  0  0  0  0
   20.8347   19.7732   23.3551 H   0  0  0  0  0  0  0  0  0  0  0  0
   19.0944   19.4609   23.2958 H   0  0  0  0  0  0  0  0  0  0  0  0
   20.1415   18.3298   24.8300 C   0  0  0  0  0  0  0  0  0  0  0  0
   21.1047   17.8128   24.9341 H   0  0  0  0  0  0  0  0  0  0  0  0
   19.3619   17.5615   24.9193 H   0  0  0  0  0  0  0  0  0  0  0  0
   19.9992   19.3509   25.9794 C   0  0  2  0  0  0  0  0  0  0  0  0
   20.7686   20.1189   25.8532 H   0  0  0  0  0  0  0  0  0  0  0  0
   20.2217   18.6631   27.3357 C   0  0  0  0  0  0  0  0  0  0  0  0
   20.1580   19.3899   28.1548 H   0  0  0  0  0  0  0  0  0  0  0  0
   19.4717   17.8820   27.5125 H   0  0  0  0  0  0  0  0  0  0  0  0
   21.2150   18.1992   27.3793 H   0  0  0  0  0  0  0  0  0  0  0  0
   18.6723   20.0596   25.9598 N   0  3  0  0  0  0  0  0  0  0  0  0
   18.5288   20.5601   25.0787 H   0  0  0  0  0  0  0  0  0  0  0  0
   18.6038   20.7456   26.7171 H   0  0  0  0  0  0  0  0  0  0  0  0
   17.8967   19.4012   26.0714 H   0  0  0  0  0  0  0  0  0  0  0  0
  1  2  1  0  0  0  0
  1  3  1  0  0  0  0
  1  4  1  0  0  0  0
  1  5  1  0  0  0  0
  5  6  1  0  0  0  0
  5  7  1  0  0  0  0
  5  8  1  0  0  0  0
  8  9  1  0  0  0  0
  8 10  1  0  0  0  0
  8 11  1  0  0  0  0
 11 12  1  0  0  0  0
 11 13  1  0  0  0  0
 11 14  1  0  0  0  0
 14 15  1  0  0  0  0
 14 16  1  0  0  0  0
 14 17  1  0  0  0  0
 17 18  1  0  0  0  0
 17 19  1  0  0  0  0
 17 20  1  0  0  0  0
 20 21  1  0  0  0  0
 20 22  1  0  0  0  0
 22 23  1  0  0  0  0
 22 24  1  0  0  0  0
 22 25  1  0  0  0  0
 20 26  1  0  0  0  0
 26 27  1  0  0  0  0
 26 28  1  0  0  0  0
 26 29  1  0  0  0  0
M  END
> <VM2 Rank>
86

> <Conf_Id>
1337

> <Probability>
0.03

> <Sum Probability>
99.20

> <Delta G>
3.449

> <G>
37.151

> <E>
-0.583

> <-TS>
37.734

> <U+W>
-24.728

> <U>
27.696

> <W>
-52.423

> <W(PB)>
-54.885

> <W(SA)>
2.462

> <Valence>
6.158

> <Coulomb>
20.386

> <VdW>
1.152

> <VdW6>
-9.567

> <VdW12>
10.719

> <Bond>
0.273

> <Angle>
1.662

> <Pdih>
4.223

> <Idih>
0.000

> <Tether>
0.000

$$$$
VeraChem MOL file


 29 28  0  0  0  0  0  0  0  0999 V2000     
   18.2578   19.1444   19.9978 C   0  0  0  0  0  0  0  0  0  0  0  0
   18.0122   20.2065   19.8680 H   0  0  0  0  0  0  0  0  0  0  0  0
   18.7916   18.8046   19.1007 H   0  0  0  0  0  0  0  0  0  0  0  0
   17.3152   18.5854   20.0605 H   0  0  0  0  0  0  0  0  0  0  0  0
   19.1078   18.9233   21.2669 C   0  0  0  0  0  0  0  0  0  0  0  0
   19.3154   17.8506   21.3843 H   0  0  0  0  0  0  0  0  0  0  0  0
   18.5246   19.2397   22.1414 H   0  0  0  0  0  0  0  0  0  0  0  0
   20.4362   19.7110   21.2076 C   0  0  0  0  0  0  0  0  0  0  0  0
   20.9448   19.4814   20.2611 H   0  0  0  0  0  0  0  0  0  0  0  0
   20.2204   20.7881   21.1842 H   0  0  0  0  0  0  0  0  0  0  0  0
   21.4158   19.4067   22.3705 C   0  0  0  0  0  0  0  0  0  0  0  0
   22.3299   19.9898   22.1921 H   0  0  0  0  0  0  0  0  0  0  0  0
   21.7266   18.3535   22.3360 H   0  0  0  0  0  0  0  0  0  0  0  0
   20.8819   19.7668   23.7815 C   0  0  0  0  0  0  0  0  0  0  0  0
   21.7228   20.1328   24.3870 H   0  0  0  0  0  0  0  0  0  0  0  0
   20.1745   20.6030   23.7065 H   0  0  0  0  0  0  0  0  0  0  0  0
   20.2445   18.5630   24.5236 C   0  0  0  0  0  0  0  0  0  0  0  0
   20.9866   17.7558   24.5854 H   0  0  0  0  0  0  0  0  0  0  0  0
   19.3981   18.1599   23.9563 H   0  0  0  0  0  0  0  0  0  0  0  0
   19.7805   18.9177   25.9526 C   0  0  2  0  0  0  0  0  0  0  0  0
   20.6335   19.3347   26.4969 H   0  0  0  0  0  0  0  0  0  0  0  0
   19.3075   17.6550   26.6902 C   0  0  0  0  0  0  0  0  0  0  0  0
   19.0101   17.8945   27.7186 H   0  0  0  0  0  0  0  0  0  0  0  0
   18.4485   17.1974   26.1836 H   0  0  0  0  0  0  0  0  0  0  0  0
   20.1108   16.9094   26.7416 H   0  0  0  0  0  0  0  0  0  0  0  0
   18.7038   19.9682   25.9633 N   0  3  0  0  0  0  0  0  0  0  0  0
   18.4247   20.2073   26.9192 H   0  0  0  0  0  0  0  0  0  0  0  0
   17.8660   19.6486   25.4700 H   0  0  0  0  0  0  0  0  0  0  0  0
   19.0190   20.8307   25.5115 H   0  0  0  0  0  0  0  0  0  0  0  0
  1  2  1  0  0  0  0
  1  3  1  0  0  0  0
  1  4  1  0  0  0  0
  1  5  1  0  0  0  0
  5  6  1  0  0  0  0
  5  7  1  0  0  0  0
  5  8  1  0  0  0  0
  8  9  1  0  0  0  0
  8 10  1  0  0  0  0
  8 11  1  0  0  0  0
 11 12  1  0  0  0  0
 11 13  1  0  0  0  0
 11 14  1  0  0  0  0
 14 15  1  0  0  0  0
 14 16  1  0  0  0  0
 14 17  1  0  0  0  0
 17 18  1  0  0  0  0
 17 19  1  0  0  0  0
 17 20  1  0  0  0  0
 20 21  1  0  0  0  0
 20 22  1  0  0  0  0
 22 23  1  0  0  0  0
 22 24  1  0  0  0  0
 22 25  1  0  0  0  0
 20 26  1  0  0  0  0
 26 27  1  0  0  0  0
 26 28  1  0  0  0  0
 26 29  1  0  0  0  0
M  END
> <VM2 Rank>
87

> <Conf_Id>
495

> <Probability>
0.03

> <Sum Probability>
99.23

> <Delta G>
3.518

> <G>
37.220

> <E>
-0.530

> <-TS>
37.750

> <U+W>
-24.675

> <U>
27.893

> <W>
-52.567

> <W(PB)>
-55.030

> <W(SA)>
2.463

> <Valence>
6.177

> <Coulomb>
20.674

> <VdW>
1.042

> <VdW6>
-9.722

> <VdW12>
10.764

> <Bond>
0.282

> <Angle>
1.681

> <Pdih>
4.213

> <Idih>
0.000

> <Tether>
0.000

$$$$
VeraChem MOL file


 29 28  0  0  0  0  0  0  0  0999 V2000     
   20.1286   20.8592   20.0810 C   0  0  0  0  0  0  0  0  0  0  0  0
   19.1093   21.2578   19.9952 H   0  0  0  0  0  0  0  0  0  0  0  0
   20.7001   21.5213   20.7444 H   0  0  0  0  0  0  0  0  0  0  0  0
   20.5907   20.8987   19.0860 H   0  0  0  0  0  0  0  0  0  0  0  0
   20.1150   19.4124   20.6182 C   0  0  0  0  0  0  0  0  0  0  0  0
   21.1445   19.0301   20.6618 H   0  0  0  0  0  0  0  0  0  0  0  0
   19.5670   18.7684   19.9162 H   0  0  0  0  0  0  0  0  0  0  0  0
   19.4684   19.3288   22.0184 C   0  0  0  0  0  0  0  0  0  0  0  0
   20.0166   19.9889   22.6988 H   0  0  0  0  0  0  0  0  0  0  0  0
   18.4390   19.7089   21.9646 H   0  0  0  0  0  0  0  0  0  0  0  0
   19.4560   17.8768   22.5563 C   0  0  0  0  0  0  0  0  0  0  0  0
   20.4806   17.4852   22.6213 H   0  0  0  0  0  0  0  0  0  0  0  0
   18.9383   17.2471   21.8194 H   0  0  0  0  0  0  0  0  0  0  0  0
   18.7350   17.7099   23.9196 C   0  0  0  0  0  0  0  0  0  0  0  0
   17.8615   18.3728   23.9756 H   0  0  0  0  0  0  0  0  0  0  0  0
   18.3272   16.6903   23.9589 H   0  0  0  0  0  0  0  0  0  0  0  0
   19.6443   17.8863   25.1660 C   0  0  0  0  0  0  0  0  0  0  0  0
   20.4622   17.1555   25.1115 H   0  0  0  0  0  0  0  0  0  0  0  0
   19.0653   17.6252   26.0618 H   0  0  0  0  0  0  0  0  0  0  0  0
   20.2437   19.2963   25.3528 C   0  0  2  0  0  0  0  0  0  0  0  0
   20.8510   19.5320   24.4751 H   0  0  0  0  0  0  0  0  0  0  0  0
   21.1613   19.3280   26.5852 C   0  0  0  0  0  0  0  0  0  0  0  0
   20.6033   19.1014   27.5024 H   0  0  0  0  0  0  0  0  0  0  0  0
   21.9705   18.5935   26.4873 H   0  0  0  0  0  0  0  0  0  0  0  0
   21.6218   20.3169   26.7008 H   0  0  0  0  0  0  0  0  0  0  0  0
   19.1836   20.3585   25.4566 N   0  3  0  0  0  0  0  0  0  0  0  0
   19.5952   21.2916   25.5493 H   0  0  0  0  0  0  0  0  0  0  0  0
   18.5836   20.2055   26.2716 H   0  0  0  0  0  0  0  0  0  0  0  0
   18.5834   20.3641   24.6276 H   0  0  0  0  0  0  0  0  0  0  0  0
  1  2  1  0  0  0  0
  1  3  1  0  0  0  0
  1  4  1  0  0  0  0
  1  5  1  0  0  0  0
  5  6  1  0  0  0  0
  5  7  1  0  0  0  0
  5  8  1  0  0  0  0
  8  9  1  0  0  0  0
  8 10  1  0  0  0  0
  8 11  1  0  0  0  0
 11 12  1  0  0  0  0
 11 13  1  0  0  0  0
 11 14  1  0  0  0  0
 14 15  1  0  0  0  0
 14 16  1  0  0  0  0
 14 17  1  0  0  0  0
 17 18  1  0  0  0  0
 17 19  1  0  0  0  0
 17 20  1  0  0  0  0
 20 21  1  0  0  0  0
 20 22  1  0  0  0  0
 22 23  1  0  0  0  0
 22 24  1  0  0  0  0
 22 25  1  0  0  0  0
 20 26  1  0  0  0  0
 26 27  1  0  0  0  0
 26 28  1  0  0  0  0
 26 29  1  0  0  0  0
M  END
> <VM2 Rank>
88

> <Conf_Id>
261

> <Probability>
0.03

> <Sum Probability>
99.26

> <Delta G>
3.547

> <G>
37.248

> <E>
-0.604

> <-TS>
37.852

> <U+W>
-24.748

> <U>
27.636

> <W>
-52.384

> <W(PB)>
-54.895

> <W(SA)>
2.510

> <Valence>
5.823

> <Coulomb>
21.132

> <VdW>
0.682

> <VdW6>
-10.106

> <VdW12>
10.787

> <Bond>
0.276

> <Angle>
1.913

> <Pdih>
3.634

> <Idih>
0.000

> <Tether>
0.000

$$$$
VeraChem MOL file


 29 28  0  0  0  0  0  0  0  0999 V2000     
   20.0034   19.9131   19.1691 C   0  0  0  0  0  0  0  0  0  0  0  0
   20.8848   20.3899   18.7209 H   0  0  0  0  0  0  0  0  0  0  0  0
   19.8944   18.9169   18.7208 H   0  0  0  0  0  0  0  0  0  0  0  0
   19.1227   20.5091   18.8964 H   0  0  0  0  0  0  0  0  0  0  0  0
   20.1560   19.8173   20.7019 C   0  0  0  0  0  0  0  0  0  0  0  0
   20.2930   20.8251   21.1179 H   0  0  0  0  0  0  0  0  0  0  0  0
   21.0669   19.2498   20.9350 H   0  0  0  0  0  0  0  0  0  0  0  0
   18.9264   19.1444   21.3561 C   0  0  0  0  0  0  0  0  0  0  0  0
   18.0191   19.6849   21.0529 H   0  0  0  0  0  0  0  0  0  0  0  0
   18.8171   18.1205   20.9728 H   0  0  0  0  0  0  0  0  0  0  0  0
   18.9888   19.1162   22.9028 C   0  0  0  0  0  0  0  0  0  0  0  0
   18.0403   18.7105   23.2811 H   0  0  0  0  0  0  0  0  0  0  0  0
   19.0663   20.1475   23.2681 H   0  0  0  0  0  0  0  0  0  0  0  0
   20.1631   18.2677   23.4519 C   0  0  0  0  0  0  0  0  0  0  0  0
   20.1971   17.3169   22.9023 H   0  0  0  0  0  0  0  0  0  0  0  0
   21.1163   18.7736   23.2478 H   0  0  0  0  0  0  0  0  0  0  0  0
   20.0763   17.9407   24.9660 C   0  0  0  0  0  0  0  0  0  0  0  0
   20.8862   17.2334   25.1896 H   0  0  0  0  0  0  0  0  0  0  0  0
   19.1430   17.4058   25.1860 H   0  0  0  0  0  0  0  0  0  0  0  0
   20.2189   19.1632   25.9033 C   0  0  2  0  0  0  0  0  0  0  0  0
   21.0012   19.8155   25.5033 H   0  0  0  0  0  0  0  0  0  0  0  0
   20.6423   18.7111   27.3107 C   0  0  0  0  0  0  0  0  0  0  0  0
   21.6027   18.1816   27.2790 H   0  0  0  0  0  0  0  0  0  0  0  0
   20.7627   19.5747   27.9765 H   0  0  0  0  0  0  0  0  0  0  0  0
   19.8958   18.0395   27.7529 H   0  0  0  0  0  0  0  0  0  0  0  0
   18.9607   19.9825   25.9920 N   0  3  0  0  0  0  0  0  0  0  0  0
   19.0927   20.8070   26.5850 H   0  0  0  0  0  0  0  0  0  0  0  0
   18.1910   19.4385   26.3909 H   0  0  0  0  0  0  0  0  0  0  0  0
   18.6622   20.3091   25.0703 H   0  0  0  0  0  0  0  0  0  0  0  0
  1  2  1  0  0  0  0
  1  3  1  0  0  0  0
  1  4  1  0  0  0  0
  1  5  1  0  0  0  0
  5  6  1  0  0  0  0
  5  7  1  0  0  0  0
  5  8  1  0  0  0  0
  8  9  1  0  0  0  0
  8 10  1  0  0  0  0
  8 11  1  0  0  0  0
 11 12  1  0  0  0  0
 11 13  1  0  0  0  0
 11 14  1  0  0  0  0
 14 15  1  0  0  0  0
 14 16  1  0  0  0  0
 14 17  1  0  0  0  0
 17 18  1  0  0  0  0
 17 19  1  0  0  0  0
 17 20  1  0  0  0  0
 20 21  1  0  0  0  0
 20 22  1  0  0  0  0
 22 23  1  0  0  0  0
 22 24  1  0  0  0  0
 22 25  1  0  0  0  0
 20 26  1  0  0  0  0
 26 27  1  0  0  0  0
 26 28  1  0  0  0  0
 26 29  1  0  0  0  0
M  END
> <VM2 Rank>
89

> <Conf_Id>
1015

> <Probability>
0.03

> <Sum Probability>
99.28

> <Delta G>
3.595

> <G>
37.297

> <E>
-0.214

> <-TS>
37.511

> <U+W>
-24.358

> <U>
27.700

> <W>
-52.059

> <W(PB)>
-54.562

> <W(SA)>
2.503

> <Valence>
5.425

> <Coulomb>
21.143

> <VdW>
1.133

> <VdW6>
-9.721

> <VdW12>
10.854

> <Bond>
0.283

> <Angle>
1.776

> <Pdih>
3.367

> <Idih>
0.000

> <Tether>
0.000

$$$$
VeraChem MOL file


 29 28  0  0  0  0  0  0  0  0999 V2000     
   18.3479   19.7122   20.0264 C   0  0  0  0  0  0  0  0  0  0  0  0
   18.2682   18.6860   19.6448 H   0  0  0  0  0  0  0  0  0  0  0  0
   17.7350   19.7911   20.9328 H   0  0  0  0  0  0  0  0  0  0  0  0
   17.9134   20.3844   19.2751 H   0  0  0  0  0  0  0  0  0  0  0  0
   19.8210   20.0896   20.3019 C   0  0  0  0  0  0  0  0  0  0  0  0
   19.8712   21.1083   20.7110 H   0  0  0  0  0  0  0  0  0  0  0  0
   20.3646   20.1148   19.3471 H   0  0  0  0  0  0  0  0  0  0  0  0
   20.5399   19.1057   21.2563 C   0  0  0  0  0  0  0  0  0  0  0  0
   20.5107   18.0940   20.8287 H   0  0  0  0  0  0  0  0  0  0  0  0
   21.6005   19.3870   21.3133 H   0  0  0  0  0  0  0  0  0  0  0  0
   19.9445   19.0871   22.6844 C   0  0  0  0  0  0  0  0  0  0  0  0
   18.9081   18.7262   22.6496 H   0  0  0  0  0  0  0  0  0  0  0  0
   19.9271   20.1143   23.0679 H   0  0  0  0  0  0  0  0  0  0  0  0
   20.7690   18.1852   23.6335 C   0  0  0  0  0  0  0  0  0  0  0  0
   20.9304   17.2143   23.1449 H   0  0  0  0  0  0  0  0  0  0  0  0
   21.7666   18.6221   23.7795 H   0  0  0  0  0  0  0  0  0  0  0  0
   20.1141   17.9206   25.0149 C   0  0  0  0  0  0  0  0  0  0  0  0
   20.7457   17.1883   25.5354 H   0  0  0  0  0  0  0  0  0  0  0  0
   19.1382   17.4344   24.8846 H   0  0  0  0  0  0  0  0  0  0  0  0
   19.9649   19.1709   25.9138 C   0  0  2  0  0  0  0  0  0  0  0  0
   20.8624   19.7867   25.8008 H   0  0  0  0  0  0  0  0  0  0  0  0
   19.8470   18.7579   27.3902 C   0  0  0  0  0  0  0  0  0  0  0  0
   19.7571   19.6410   28.0349 H   0  0  0  0  0  0  0  0  0  0  0  0
   18.9677   18.1226   27.5554 H   0  0  0  0  0  0  0  0  0  0  0  0
   20.7362   18.2021   27.7129 H   0  0  0  0  0  0  0  0  0  0  0  0
   18.7879   20.0268   25.5326 N   0  3  0  0  0  0  0  0  0  0  0  0
   18.7361   20.8700   26.1114 H   0  0  0  0  0  0  0  0  0  0  0  0
   17.9068   19.5197   25.6512 H   0  0  0  0  0  0  0  0  0  0  0  0
   18.8430   20.3246   24.5559 H   0  0  0  0  0  0  0  0  0  0  0  0
  1  2  1  0  0  0  0
  1  3  1  0  0  0  0
  1  4  1  0  0  0  0
  1  5  1  0  0  0  0
  5  6  1  0  0  0  0
  5  7  1  0  0  0  0
  5  8  1  0  0  0  0
  8  9  1  0  0  0  0
  8 10  1  0  0  0  0
  8 11  1  0  0  0  0
 11 12  1  0  0  0  0
 11 13  1  0  0  0  0
 11 14  1  0  0  0  0
 14 15  1  0  0  0  0
 14 16  1  0  0  0  0
 14 17  1  0  0  0  0
 17 18  1  0  0  0  0
 17 19  1  0  0  0  0
 17 20  1  0  0  0  0
 20 21  1  0  0  0  0
 20 22  1  0  0  0  0
 22 23  1  0  0  0  0
 22 24  1  0  0  0  0
 22 25  1  0  0  0  0
 20 26  1  0  0  0  0
 26 27  1  0  0  0  0
 26 28  1  0  0  0  0
 26 29  1  0  0  0  0
M  END
> <VM2 Rank>
90

> <Conf_Id>
1176

> <Probability>
0.02

> <Sum Probability>
99.30

> <Delta G>
3.719

> <G>
37.421

> <E>
-0.101

> <-TS>
37.522

> <U+W>
-24.246

> <U>
27.821

> <W>
-52.067

> <W(PB)>
-54.584

> <W(SA)>
2.516

> <Valence>
5.451

> <Coulomb>
21.220

> <VdW>
1.151

> <VdW6>
-9.707

> <VdW12>
10.858

> <Bond>
0.277

> <Angle>
1.826

> <Pdih>
3.348

> <Idih>
0.000

> <Tether>
0.000

$$$$
VeraChem MOL file


 29 28  0  0  0  0  0  0  0  0999 V2000     
   20.9066   20.3701   20.5249 C   0  0  0  0  0  0  0  0  0  0  0  0
   21.1628   20.4934   21.5828 H   0  0  0  0  0  0  0  0  0  0  0  0
   21.7106   19.7949   20.0476 H   0  0  0  0  0  0  0  0  0  0  0  0
   20.8947   21.3679   20.0674 H   0  0  0  0  0  0  0  0  0  0  0  0
   19.5402   19.6714   20.3333 C   0  0  0  0  0  0  0  0  0  0  0  0
   19.3413   19.6084   19.2543 H   0  0  0  0  0  0  0  0  0  0  0  0
   18.7335   20.2878   20.7538 H   0  0  0  0  0  0  0  0  0  0  0  0
   19.4912   18.2405   20.9283 C   0  0  0  0  0  0  0  0  0  0  0  0
   18.8608   17.6207   20.2758 H   0  0  0  0  0  0  0  0  0  0  0  0
   20.4891   17.7818   20.8974 H   0  0  0  0  0  0  0  0  0  0  0  0
   18.9071   18.1504   22.3618 C   0  0  0  0  0  0  0  0  0  0  0  0
   18.8598   17.0904   22.6472 H   0  0  0  0  0  0  0  0  0  0  0  0
   17.8696   18.5121   22.3557 H   0  0  0  0  0  0  0  0  0  0  0  0
   19.7153   18.9230   23.4298 C   0  0  0  0  0  0  0  0  0  0  0  0
   20.7721   18.6347   23.3572 H   0  0  0  0  0  0  0  0  0  0  0  0
   19.6543   20.0005   23.2291 H   0  0  0  0  0  0  0  0  0  0  0  0
   19.1861   18.6480   24.8587 C   0  0  0  0  0  0  0  0  0  0  0  0
   19.3079   17.5838   25.1006 H   0  0  0  0  0  0  0  0  0  0  0  0
   18.1069   18.8499   24.8762 H   0  0  0  0  0  0  0  0  0  0  0  0
   19.8626   19.5096   25.9492 C   0  0  2  0  0  0  0  0  0  0  0  0
   19.7595   20.5621   25.6680 H   0  0  0  0  0  0  0  0  0  0  0  0
   21.3610   19.1891   26.0958 C   0  0  0  0  0  0  0  0  0  0  0  0
   21.8031   19.7744   26.9115 H   0  0  0  0  0  0  0  0  0  0  0  0
   21.5197   18.1259   26.3153 H   0  0  0  0  0  0  0  0  0  0  0  0
   21.9135   19.4382   25.1825 H   0  0  0  0  0  0  0  0  0  0  0  0
   19.1658   19.3539   27.2722 N   0  3  0  0  0  0  0  0  0  0  0  0
   19.5856   19.9530   27.9888 H   0  0  0  0  0  0  0  0  0  0  0  0
   19.2182   18.3895   27.6113 H   0  0  0  0  0  0  0  0  0  0  0  0
   18.1748   19.6043   27.2083 H   0  0  0  0  0  0  0  0  0  0  0  0
  1  2  1  0  0  0  0
  1  3  1  0  0  0  0
  1  4  1  0  0  0  0
  1  5  1  0  0  0  0
  5  6  1  0  0  0  0
  5  7  1  0  0  0  0
  5  8  1  0  0  0  0
  8  9  1  0  0  0  0
  8 10  1  0  0  0  0
  8 11  1  0  0  0  0
 11 12  1  0  0  0  0
 11 13  1  0  0  0  0
 11 14  1  0  0  0  0
 14 15  1  0  0  0  0
 14 16  1  0  0  0  0
 14 17  1  0  0  0  0
 17 18  1  0  0  0  0
 17 19  1  0  0  0  0
 17 20  1  0  0  0  0
 20 21  1  0  0  0  0
 20 22  1  0  0  0  0
 22 23  1  0  0  0  0
 22 24  1  0  0  0  0
 22 25  1  0  0  0  0
 20 26  1  0  0  0  0
 26 27  1  0  0  0  0
 26 28  1  0  0  0  0
 26 29  1  0  0  0  0
M  END
> <VM2 Rank>
91

> <Conf_Id>
1245

> <Probability>
0.02

> <Sum Probability>
99.32

> <Delta G>
3.748

> <G>
37.449

> <E>
-0.303

> <-TS>
37.752

> <U+W>
-24.447

> <U>
27.666

> <W>
-52.113

> <W(PB)>
-54.554

> <W(SA)>
2.441

> <Valence>
6.691

> <Coulomb>
19.707

> <VdW>
1.268

> <VdW6>
-9.727

> <VdW12>
10.995

> <Bond>
0.283

> <Angle>
1.951

> <Pdih>
4.457

> <Idih>
0.000

> <Tether>
0.000

$$$$
VeraChem MOL file


 29 28  0  0  0  0  0  0  0  0999 V2000     
   20.0422   20.7262   20.6116 C   0  0  0  0  0  0  0  0  0  0  0  0
   19.9089   21.5006   19.8451 H   0  0  0  0  0  0  0  0  0  0  0  0
   19.3809   20.9783   21.4497 H   0  0  0  0  0  0  0  0  0  0  0  0
   21.0824   20.7726   20.9591 H   0  0  0  0  0  0  0  0  0  0  0  0
   19.7090   19.3333   20.0344 C   0  0  0  0  0  0  0  0  0  0  0  0
   20.2701   19.1962   19.0995 H   0  0  0  0  0  0  0  0  0  0  0  0
   18.6457   19.2981   19.7589 H   0  0  0  0  0  0  0  0  0  0  0  0
   20.0392   18.1527   20.9829 C   0  0  0  0  0  0  0  0  0  0  0  0
   19.8076   17.2229   20.4453 H   0  0  0  0  0  0  0  0  0  0  0  0
   21.1193   18.1184   21.1811 H   0  0  0  0  0  0  0  0  0  0  0  0
   19.2462   18.1496   22.3159 C   0  0  0  0  0  0  0  0  0  0  0  0
   19.0321   17.1073   22.5901 H   0  0  0  0  0  0  0  0  0  0  0  0
   18.2699   18.6328   22.1731 H   0  0  0  0  0  0  0  0  0  0  0  0
   20.0112   18.8088   23.4898 C   0  0  0  0  0  0  0  0  0  0  0  0
   20.9589   18.2751   23.6383 H   0  0  0  0  0  0  0  0  0  0  0  0
   20.2691   19.8458   23.2442 H   0  0  0  0  0  0  0  0  0  0  0  0
   19.1818   18.7854   24.7971 C   0  0  0  0  0  0  0  0  0  0  0  0
   18.9859   17.7462   25.0933 H   0  0  0  0  0  0  0  0  0  0  0  0
   18.2033   19.2419   24.5977 H   0  0  0  0  0  0  0  0  0  0  0  0
   19.8448   19.5443   25.9692 C   0  0  2  0  0  0  0  0  0  0  0  0
   20.0657   20.5634   25.6370 H   0  0  0  0  0  0  0  0  0  0  0  0
   21.1595   18.8828   26.4198 C   0  0  0  0  0  0  0  0  0  0  0  0
   21.9143   18.9134   25.6256 H   0  0  0  0  0  0  0  0  0  0  0  0
   21.5795   19.4088   27.2860 H   0  0  0  0  0  0  0  0  0  0  0  0
   20.9997   17.8349   26.7030 H   0  0  0  0  0  0  0  0  0  0  0  0
   18.9022   19.6729   27.1334 N   0  3  0  0  0  0  0  0  0  0  0  0
   19.3228   20.2093   27.8976 H   0  0  0  0  0  0  0  0  0  0  0  0
   18.6448   18.7562   27.5091 H   0  0  0  0  0  0  0  0  0  0  0  0
   18.0363   20.1504   26.8667 H   0  0  0  0  0  0  0  0  0  0  0  0
  1  2  1  0  0  0  0
  1  3  1  0  0  0  0
  1  4  1  0  0  0  0
  1  5  1  0  0  0  0
  5  6  1  0  0  0  0
  5  7  1  0  0  0  0
  5  8  1  0  0  0  0
  8  9  1  0  0  0  0
  8 10  1  0  0  0  0
  8 11  1  0  0  0  0
 11 12  1  0  0  0  0
 11 13  1  0  0  0  0
 11 14  1  0  0  0  0
 14 15  1  0  0  0  0
 14 16  1  0  0  0  0
 14 17  1  0  0  0  0
 17 18  1  0  0  0  0
 17 19  1  0  0  0  0
 17 20  1  0  0  0  0
 20 21  1  0  0  0  0
 20 22  1  0  0  0  0
 22 23  1  0  0  0  0
 22 24  1  0  0  0  0
 22 25  1  0  0  0  0
 20 26  1  0  0  0  0
 26 27  1  0  0  0  0
 26 28  1  0  0  0  0
 26 29  1  0  0  0  0
M  END
> <VM2 Rank>
92

> <Conf_Id>
320

> <Probability>
0.02

> <Sum Probability>
99.34

> <Delta G>
3.752

> <G>
37.453

> <E>
-0.296

> <-TS>
37.749

> <U+W>
-24.440

> <U>
27.705

> <W>
-52.145

> <W(PB)>
-54.637

> <W(SA)>
2.492

> <Valence>
6.675

> <Coulomb>
19.752

> <VdW>
1.278

> <VdW6>
-9.694

> <VdW12>
10.972

> <Bond>
0.285

> <Angle>
1.922

> <Pdih>
4.468

> <Idih>
0.000

> <Tether>
0.000

$$$$
VeraChem MOL file


 29 28  0  0  0  0  0  0  0  0999 V2000     
   20.7513   18.0430   20.6075 C   0  0  0  0  0  0  0  0  0  0  0  0
   21.0071   17.3198   19.8224 H   0  0  0  0  0  0  0  0  0  0  0  0
   21.6831   18.5122   20.9487 H   0  0  0  0  0  0  0  0  0  0  0  0
   20.3164   17.4796   21.4422 H   0  0  0  0  0  0  0  0  0  0  0  0
   19.7614   19.0979   20.0672 C   0  0  0  0  0  0  0  0  0  0  0  0
   18.8175   18.6056   19.7948 H   0  0  0  0  0  0  0  0  0  0  0  0
   20.1665   19.5159   19.1350 H   0  0  0  0  0  0  0  0  0  0  0  0
   19.4747   20.2658   21.0453 C   0  0  0  0  0  0  0  0  0  0  0  0
   20.3975   20.8285   21.2425 H   0  0  0  0  0  0  0  0  0  0  0  0
   18.8035   20.9686   20.5324 H   0  0  0  0  0  0  0  0  0  0  0  0
   18.8047   19.8447   22.3792 C   0  0  0  0  0  0  0  0  0  0  0  0
   18.2013   18.9391   22.2276 H   0  0  0  0  0  0  0  0  0  0  0  0
   18.0999   20.6331   22.6776 H   0  0  0  0  0  0  0  0  0  0  0  0
   19.8134   19.6351   23.5351 C   0  0  0  0  0  0  0  0  0  0  0  0
   20.5606   18.8884   23.2461 H   0  0  0  0  0  0  0  0  0  0  0  0
   20.3581   20.5720   23.7164 H   0  0  0  0  0  0  0  0  0  0  0  0
   19.1048   19.1926   24.8388 C   0  0  0  0  0  0  0  0  0  0  0  0
   18.6085   18.2259   24.6802 H   0  0  0  0  0  0  0  0  0  0  0  0
   18.3111   19.9159   25.0681 H   0  0  0  0  0  0  0  0  0  0  0  0
   20.0483   19.0983   26.0596 C   0  0  2  0  0  0  0  0  0  0  0  0
   20.5637   20.0574   26.1701 H   0  0  0  0  0  0  0  0  0  0  0  0
   21.1061   17.9926   25.8923 C   0  0  0  0  0  0  0  0  0  0  0  0
   21.7245   17.9102   26.7946 H   0  0  0  0  0  0  0  0  0  0  0  0
   20.6361   17.0178   25.7121 H   0  0  0  0  0  0  0  0  0  0  0  0
   21.7812   18.2089   25.0564 H   0  0  0  0  0  0  0  0  0  0  0  0
   19.2713   18.8859   27.3291 N   0  3  0  0  0  0  0  0  0  0  0  0
   18.5900   19.6347   27.4840 H   0  0  0  0  0  0  0  0  0  0  0  0
   19.8887   18.8623   28.1458 H   0  0  0  0  0  0  0  0  0  0  0  0
   18.7571   18.0011   27.3092 H   0  0  0  0  0  0  0  0  0  0  0  0
  1  2  1  0  0  0  0
  1  3  1  0  0  0  0
  1  4  1  0  0  0  0
  1  5  1  0  0  0  0
  5  6  1  0  0  0  0
  5  7  1  0  0  0  0
  5  8  1  0  0  0  0
  8  9  1  0  0  0  0
  8 10  1  0  0  0  0
  8 11  1  0  0  0  0
 11 12  1  0  0  0  0
 11 13  1  0  0  0  0
 11 14  1  0  0  0  0
 14 15  1  0  0  0  0
 14 16  1  0  0  0  0
 14 17  1  0  0  0  0
 17 18  1  0  0  0  0
 17 19  1  0  0  0  0
 17 20  1  0  0  0  0
 20 21  1  0  0  0  0
 20 22  1  0  0  0  0
 22 23  1  0  0  0  0
 22 24  1  0  0  0  0
 22 25  1  0  0  0  0
 20 26  1  0  0  0  0
 26 27  1  0  0  0  0
 26 28  1  0  0  0  0
 26 29  1  0  0  0  0
M  END
> <VM2 Rank>
93

> <Conf_Id>
187

> <Probability>
0.02

> <Sum Probability>
99.36

> <Delta G>
3.756

> <G>
37.457

> <E>
-0.302

> <-TS>
37.759

> <U+W>
-24.446

> <U>
27.633

> <W>
-52.079

> <W(PB)>
-54.518

> <W(SA)>
2.440

> <Valence>
6.676

> <Coulomb>
19.710

> <VdW>
1.246

> <VdW6>
-9.758

> <VdW12>
11.005

> <Bond>
0.286

> <Angle>
1.893

> <Pdih>
4.497

> <Idih>
0.000

> <Tether>
0.000

$$$$
VeraChem MOL file


 29 28  0  0  0  0  0  0  0  0999 V2000     
   18.8982   17.9582   20.7184 C   0  0  0  0  0  0  0  0  0  0  0  0
   18.6745   17.2483   19.9117 H   0  0  0  0  0  0  0  0  0  0  0  0
   19.4925   17.4233   21.4694 H   0  0  0  0  0  0  0  0  0  0  0  0
   17.9464   18.2600   21.1741 H   0  0  0  0  0  0  0  0  0  0  0  0
   19.6632   19.1800   20.1647 C   0  0  0  0  0  0  0  0  0  0  0  0
   19.1105   19.5807   19.3035 H   0  0  0  0  0  0  0  0  0  0  0  0
   20.6377   18.8536   19.7754 H   0  0  0  0  0  0  0  0  0  0  0  0
   19.8704   20.3235   21.1905 C   0  0  0  0  0  0  0  0  0  0  0  0
   20.3767   21.1473   20.6686 H   0  0  0  0  0  0  0  0  0  0  0  0
   18.8989   20.7269   21.5076 H   0  0  0  0  0  0  0  0  0  0  0  0
   20.7238   19.9386   22.4270 C   0  0  0  0  0  0  0  0  0  0  0  0
   21.3298   20.8087   22.7154 H   0  0  0  0  0  0  0  0  0  0  0  0
   21.4371   19.1468   22.1597 H   0  0  0  0  0  0  0  0  0  0  0  0
   19.8769   19.5132   23.6513 C   0  0  0  0  0  0  0  0  0  0  0  0
   19.2180   20.3441   23.9355 H   0  0  0  0  0  0  0  0  0  0  0  0
   19.2264   18.6745   23.3810 H   0  0  0  0  0  0  0  0  0  0  0  0
   20.7731   19.1162   24.8531 C   0  0  0  0  0  0  0  0  0  0  0  0
   21.4443   19.9510   25.0938 H   0  0  0  0  0  0  0  0  0  0  0  0
   21.4230   18.2810   24.5601 H   0  0  0  0  0  0  0  0  0  0  0  0
   20.0050   18.7208   26.1364 C   0  0  2  0  0  0  0  0  0  0  0  0
   20.7508   18.4980   26.9057 H   0  0  0  0  0  0  0  0  0  0  0  0
   19.1529   17.4555   25.9348 C   0  0  0  0  0  0  0  0  0  0  0  0
   19.7614   16.6355   25.5335 H   0  0  0  0  0  0  0  0  0  0  0  0
   18.7325   17.1204   26.8909 H   0  0  0  0  0  0  0  0  0  0  0  0
   18.3181   17.6333   25.2465 H   0  0  0  0  0  0  0  0  0  0  0  0
   19.1725   19.8501   26.6779 N   0  3  0  0  0  0  0  0  0  0  0  0
   19.7410   20.6828   26.8572 H   0  0  0  0  0  0  0  0  0  0  0  0
   18.7204   19.5921   27.5597 H   0  0  0  0  0  0  0  0  0  0  0  0
   18.4349   20.1156   26.0206 H   0  0  0  0  0  0  0  0  0  0  0  0
  1  2  1  0  0  0  0
  1  3  1  0  0  0  0
  1  4  1  0  0  0  0
  1  5  1  0  0  0  0
  5  6  1  0  0  0  0
  5  7  1  0  0  0  0
  5  8  1  0  0  0  0
  8  9  1  0  0  0  0
  8 10  1  0  0  0  0
  8 11  1  0  0  0  0
 11 12  1  0  0  0  0
 11 13  1  0  0  0  0
 11 14  1  0  0  0  0
 14 15  1  0  0  0  0
 14 16  1  0  0  0  0
 14 17  1  0  0  0  0
 17 18  1  0  0  0  0
 17 19  1  0  0  0  0
 17 20  1  0  0  0  0
 20 21  1  0  0  0  0
 20 22  1  0  0  0  0
 22 23  1  0  0  0  0
 22 24  1  0  0  0  0
 22 25  1  0  0  0  0
 20 26  1  0  0  0  0
 26 27  1  0  0  0  0
 26 28  1  0  0  0  0
 26 29  1  0  0  0  0
M  END
> <VM2 Rank>
94

> <Conf_Id>
248

> <Probability>
0.02

> <Sum Probability>
99.38

> <Delta G>
3.772

> <G>
37.474

> <E>
-0.420

> <-TS>
37.893

> <U+W>
-24.564

> <U>
27.852

> <W>
-52.416

> <W(PB)>
-54.827

> <W(SA)>
2.412

> <Valence>
6.641

> <Coulomb>
19.992

> <VdW>
1.219

> <VdW6>
-10.253

> <VdW12>
11.472

> <Bond>
0.310

> <Angle>
1.947

> <Pdih>
4.384

> <Idih>
0.000

> <Tether>
0.000

$$$$
VeraChem MOL file


 29 28  0  0  0  0  0  0  0  0999 V2000     
   18.2553   19.4233   20.0096 C   0  0  0  0  0  0  0  0  0  0  0  0
   17.6338   18.6086   20.4035 H   0  0  0  0  0  0  0  0  0  0  0  0
   17.5969   20.2739   19.7905 H   0  0  0  0  0  0  0  0  0  0  0  0
   18.6990   19.0880   19.0630 H   0  0  0  0  0  0  0  0  0  0  0  0
   19.3476   19.8264   21.0225 C   0  0  0  0  0  0  0  0  0  0  0  0
   18.8690   20.1965   21.9368 H   0  0  0  0  0  0  0  0  0  0  0  0
   19.9291   20.6643   20.6132 H   0  0  0  0  0  0  0  0  0  0  0  0
   20.2951   18.6442   21.3389 C   0  0  0  0  0  0  0  0  0  0  0  0
   19.7214   17.7788   21.6983 H   0  0  0  0  0  0  0  0  0  0  0  0
   20.7670   18.3254   20.3992 H   0  0  0  0  0  0  0  0  0  0  0  0
   21.4143   19.0003   22.3521 C   0  0  0  0  0  0  0  0  0  0  0  0
   21.6775   20.0640   22.2724 H   0  0  0  0  0  0  0  0  0  0  0  0
   22.3211   18.4497   22.0658 H   0  0  0  0  0  0  0  0  0  0  0  0
   21.0950   18.6364   23.8251 C   0  0  0  0  0  0  0  0  0  0  0  0
   20.9327   17.5527   23.8960 H   0  0  0  0  0  0  0  0  0  0  0  0
   21.9824   18.8559   24.4348 H   0  0  0  0  0  0  0  0  0  0  0  0
   19.8792   19.3916   24.4176 C   0  0  0  0  0  0  0  0  0  0  0  0
   18.9568   19.0515   23.9303 H   0  0  0  0  0  0  0  0  0  0  0  0
   19.9857   20.4605   24.1911 H   0  0  0  0  0  0  0  0  0  0  0  0
   19.7346   19.2266   25.9474 C   0  0  2  0  0  0  0  0  0  0  0  0
   20.6747   19.5334   26.4161 H   0  0  0  0  0  0  0  0  0  0  0  0
   19.4438   17.7690   26.3473 C   0  0  0  0  0  0  0  0  0  0  0  0
   18.5379   17.3953   25.8539 H   0  0  0  0  0  0  0  0  0  0  0  0
   20.2775   17.1090   26.0809 H   0  0  0  0  0  0  0  0  0  0  0  0
   19.2990   17.6873   27.4316 H   0  0  0  0  0  0  0  0  0  0  0  0
   18.6711   20.1384   26.4935 N   0  3  0  0  0  0  0  0  0  0  0  0
   18.8677   21.1197   26.2760 H   0  0  0  0  0  0  0  0  0  0  0  0
   18.5995   20.0608   27.5121 H   0  0  0  0  0  0  0  0  0  0  0  0
   17.7510   19.9149   26.1047 H   0  0  0  0  0  0  0  0  0  0  0  0
  1  2  1  0  0  0  0
  1  3  1  0  0  0  0
  1  4  1  0  0  0  0
  1  5  1  0  0  0  0
  5  6  1  0  0  0  0
  5  7  1  0  0  0  0
  5  8  1  0  0  0  0
  8  9  1  0  0  0  0
  8 10  1  0  0  0  0
  8 11  1  0  0  0  0
 11 12  1  0  0  0  0
 11 13  1  0  0  0  0
 11 14  1  0  0  0  0
 14 15  1  0  0  0  0
 14 16  1  0  0  0  0
 14 17  1  0  0  0  0
 17 18  1  0  0  0  0
 17 19  1  0  0  0  0
 17 20  1  0  0  0  0
 20 21  1  0  0  0  0
 20 22  1  0  0  0  0
 22 23  1  0  0  0  0
 22 24  1  0  0  0  0
 22 25  1  0  0  0  0
 20 26  1  0  0  0  0
 26 27  1  0  0  0  0
 26 28  1  0  0  0  0
 26 29  1  0  0  0  0
M  END
> <VM2 Rank>
95

> <Conf_Id>
88

> <Probability>
0.02

> <Sum Probability>
99.40

> <Delta G>
3.774

> <G>
37.476

> <E>
-0.325

> <-TS>
37.801

> <U+W>
-24.470

> <U>
28.013

> <W>
-52.483

> <W(PB)>
-54.954

> <W(SA)>
2.471

> <Valence>
6.671

> <Coulomb>
20.180

> <VdW>
1.162

> <VdW6>
-9.853

> <VdW12>
11.014

> <Bond>
0.284

> <Angle>
1.876

> <Pdih>
4.511

> <Idih>
0.000

> <Tether>
0.000

$$$$
VeraChem MOL file


 29 28  0  0  0  0  0  0  0  0999 V2000     
   20.5548   19.7384   19.3120 C   0  0  0  0  0  0  0  0  0  0  0  0
   20.6285   18.7820   18.7781 H   0  0  0  0  0  0  0  0  0  0  0  0
   19.6714   20.2720   18.9375 H   0  0  0  0  0  0  0  0  0  0  0  0
   21.4412   20.3345   19.0590 H   0  0  0  0  0  0  0  0  0  0  0  0
   20.4636   19.5176   20.8367 C   0  0  0  0  0  0  0  0  0  0  0  0
   20.4336   20.4948   21.3363 H   0  0  0  0  0  0  0  0  0  0  0  0
   21.3729   19.0087   21.1858 H   0  0  0  0  0  0  0  0  0  0  0  0
   19.2184   18.6824   21.2178 C   0  0  0  0  0  0  0  0  0  0  0  0
   18.3065   19.2155   20.9154 H   0  0  0  0  0  0  0  0  0  0  0  0
   19.2308   17.7443   20.6459 H   0  0  0  0  0  0  0  0  0  0  0  0
   19.1440   18.3362   22.7250 C   0  0  0  0  0  0  0  0  0  0  0  0
   20.0548   17.8003   23.0177 H   0  0  0  0  0  0  0  0  0  0  0  0
   18.3153   17.6308   22.8760 H   0  0  0  0  0  0  0  0  0  0  0  0
   18.9172   19.5735   23.6321 C   0  0  0  0  0  0  0  0  0  0  0  0
   19.7216   20.3093   23.5048 H   0  0  0  0  0  0  0  0  0  0  0  0
   17.9949   20.0722   23.3035 H   0  0  0  0  0  0  0  0  0  0  0  0
   18.7727   19.2149   25.1351 C   0  0  0  0  0  0  0  0  0  0  0  0
   18.3743   18.1981   25.2488 H   0  0  0  0  0  0  0  0  0  0  0  0
   18.0150   19.8822   25.5669 H   0  0  0  0  0  0  0  0  0  0  0  0
   20.0656   19.3785   25.9702 C   0  0  2  0  0  0  0  0  0  0  0  0
   20.4008   20.4161   25.8783 H   0  0  0  0  0  0  0  0  0  0  0  0
   21.2056   18.4630   25.4935 C   0  0  0  0  0  0  0  0  0  0  0  0
   22.0724   18.5448   26.1608 H   0  0  0  0  0  0  0  0  0  0  0  0
   20.8899   17.4126   25.4721 H   0  0  0  0  0  0  0  0  0  0  0  0
   21.5442   18.7471   24.4905 H   0  0  0  0  0  0  0  0  0  0  0  0
   19.7942   19.1514   27.4315 N   0  3  0  0  0  0  0  0  0  0  0  0
   20.6345   19.3050   27.9962 H   0  0  0  0  0  0  0  0  0  0  0  0
   19.4781   18.1940   27.6084 H   0  0  0  0  0  0  0  0  0  0  0  0
   19.0705   19.7847   27.7837 H   0  0  0  0  0  0  0  0  0  0  0  0
  1  2  1  0  0  0  0
  1  3  1  0  0  0  0
  1  4  1  0  0  0  0
  1  5  1  0  0  0  0
  5  6  1  0  0  0  0
  5  7  1  0  0  0  0
  5  8  1  0  0  0  0
  8  9  1  0  0  0  0
  8 10  1  0  0  0  0
  8 11  1  0  0  0  0
 11 12  1  0  0  0  0
 11 13  1  0  0  0  0
 11 14  1  0  0  0  0
 14 15  1  0  0  0  0
 14 16  1  0  0  0  0
 14 17  1  0  0  0  0
 17 18  1  0  0  0  0
 17 19  1  0  0  0  0
 17 20  1  0  0  0  0
 20 21  1  0  0  0  0
 20 22  1  0  0  0  0
 22 23  1  0  0  0  0
 22 24  1  0  0  0  0
 22 25  1  0  0  0  0
 20 26  1  0  0  0  0
 26 27  1  0  0  0  0
 26 28  1  0  0  0  0
 26 29  1  0  0  0  0
M  END
> <VM2 Rank>
96

> <Conf_Id>
1279

> <Probability>
0.02

> <Sum Probability>
99.42

> <Delta G>
3.785

> <G>
37.487

> <E>
-0.252

> <-TS>
37.739

> <U+W>
-24.396

> <U>
27.862

> <W>
-52.258

> <W(PB)>
-54.707

> <W(SA)>
2.449

> <Valence>
6.792

> <Coulomb>
19.861

> <VdW>
1.208

> <VdW6>
-9.832

> <VdW12>
11.040

> <Bond>
0.295

> <Angle>
1.936

> <Pdih>
4.561

> <Idih>
0.000

> <Tether>
0.000

$$$$
VeraChem MOL file


 29 28  0  0  0  0  0  0  0  0999 V2000     
   20.1553   17.8135   20.0316 C   0  0  0  0  0  0  0  0  0  0  0  0
   19.6717   17.2113   20.8107 H   0  0  0  0  0  0  0  0  0  0  0  0
   19.9361   17.3403   19.0658 H   0  0  0  0  0  0  0  0  0  0  0  0
   21.2411   17.7711   20.1875 H   0  0  0  0  0  0  0  0  0  0  0  0
   19.6485   19.2736   20.0455 C   0  0  0  0  0  0  0  0  0  0  0  0
   18.5568   19.2873   19.9203 H   0  0  0  0  0  0  0  0  0  0  0  0
   20.0644   19.8006   19.1754 H   0  0  0  0  0  0  0  0  0  0  0  0
   20.0384   20.0481   21.3275 C   0  0  0  0  0  0  0  0  0  0  0  0
   21.1315   20.0467   21.4382 H   0  0  0  0  0  0  0  0  0  0  0  0
   19.7414   21.0988   21.2042 H   0  0  0  0  0  0  0  0  0  0  0  0
   19.3833   19.4850   22.6113 C   0  0  0  0  0  0  0  0  0  0  0  0
   19.7158   18.4538   22.7730 H   0  0  0  0  0  0  0  0  0  0  0  0
   18.2936   19.4460   22.4770 H   0  0  0  0  0  0  0  0  0  0  0  0
   19.7163   20.3517   23.8505 C   0  0  0  0  0  0  0  0  0  0  0  0
   20.8038   20.4662   23.9588 H   0  0  0  0  0  0  0  0  0  0  0  0
   19.3215   21.3624   23.6769 H   0  0  0  0  0  0  0  0  0  0  0  0
   19.1046   19.8044   25.1674 C   0  0  0  0  0  0  0  0  0  0  0  0
   18.1939   19.2290   24.9545 H   0  0  0  0  0  0  0  0  0  0  0  0
   18.7807   20.6643   25.7686 H   0  0  0  0  0  0  0  0  0  0  0  0
   20.0744   18.9684   26.0370 C   0  0  2  0  0  0  0  0  0  0  0  0
   20.9444   19.5900   26.2697 H   0  0  0  0  0  0  0  0  0  0  0  0
   20.5701   17.6972   25.3273 C   0  0  0  0  0  0  0  0  0  0  0  0
   19.7305   17.0788   24.9863 H   0  0  0  0  0  0  0  0  0  0  0  0
   21.1938   17.9481   24.4616 H   0  0  0  0  0  0  0  0  0  0  0  0
   21.1865   17.0919   26.0034 H   0  0  0  0  0  0  0  0  0  0  0  0
   19.4450   18.6142   27.3557 N   0  3  0  0  0  0  0  0  0  0  0  0
   20.0977   18.1020   27.9560 H   0  0  0  0  0  0  0  0  0  0  0  0
   18.6189   18.0234   27.2288 H   0  0  0  0  0  0  0  0  0  0  0  0
   19.1503   19.4496   27.8696 H   0  0  0  0  0  0  0  0  0  0  0  0
  1  2  1  0  0  0  0
  1  3  1  0  0  0  0
  1  4  1  0  0  0  0
  1  5  1  0  0  0  0
  5  6  1  0  0  0  0
  5  7  1  0  0  0  0
  5  8  1  0  0  0  0
  8  9  1  0  0  0  0
  8 10  1  0  0  0  0
  8 11  1  0  0  0  0
 11 12  1  0  0  0  0
 11 13  1  0  0  0  0
 11 14  1  0  0  0  0
 14 15  1  0  0  0  0
 14 16  1  0  0  0  0
 14 17  1  0  0  0  0
 17 18  1  0  0  0  0
 17 19  1  0  0  0  0
 17 20  1  0  0  0  0
 20 21  1  0  0  0  0
 20 22  1  0  0  0  0
 22 23  1  0  0  0  0
 22 24  1  0  0  0  0
 22 25  1  0  0  0  0
 20 26  1  0  0  0  0
 26 27  1  0  0  0  0
 26 28  1  0  0  0  0
 26 29  1  0  0  0  0
M  END
> <VM2 Rank>
97

> <Conf_Id>
258

> <Probability>
0.02

> <Sum Probability>
99.44

> <Delta G>
3.803

> <G>
37.505

> <E>
-0.288

> <-TS>
37.793

> <U+W>
-24.433

> <U>
27.713

> <W>
-52.146

> <W(PB)>
-54.604

> <W(SA)>
2.458

> <Valence>
6.758

> <Coulomb>
19.720

> <VdW>
1.235

> <VdW6>
-9.782

> <VdW12>
11.017

> <Bond>
0.287

> <Angle>
1.880

> <Pdih>
4.591

> <Idih>
0.000

> <Tether>
0.000

$$$$
VeraChem MOL file


 29 28  0  0  0  0  0  0  0  0999 V2000     
   19.3864   18.8044   19.3279 C   0  0  0  0  0  0  0  0  0  0  0  0
   20.2554   19.3311   18.9123 H   0  0  0  0  0  0  0  0  0  0  0  0
   19.3338   17.8152   18.8551 H   0  0  0  0  0  0  0  0  0  0  0  0
   18.4827   19.3607   19.0466 H   0  0  0  0  0  0  0  0  0  0  0  0
   19.5011   18.6702   20.8611 C   0  0  0  0  0  0  0  0  0  0  0  0
   20.3923   18.0753   21.1011 H   0  0  0  0  0  0  0  0  0  0  0  0
   18.6338   18.1142   21.2437 H   0  0  0  0  0  0  0  0  0  0  0  0
   19.5810   20.0530   21.5498 C   0  0  0  0  0  0  0  0  0  0  0  0
   20.4752   20.5887   21.2025 H   0  0  0  0  0  0  0  0  0  0  0  0
   18.7189   20.6584   21.2373 H   0  0  0  0  0  0  0  0  0  0  0  0
   19.5907   19.9726   23.0958 C   0  0  0  0  0  0  0  0  0  0  0  0
   18.6804   19.4577   23.4262 H   0  0  0  0  0  0  0  0  0  0  0  0
   19.5452   20.9944   23.4971 H   0  0  0  0  0  0  0  0  0  0  0  0
   20.8422   19.2579   23.6643 C   0  0  0  0  0  0  0  0  0  0  0  0
   20.8204   18.1930   23.3998 H   0  0  0  0  0  0  0  0  0  0  0  0
   21.7342   19.6693   23.1723 H   0  0  0  0  0  0  0  0  0  0  0  0
   21.0332   19.4115   25.1996 C   0  0  0  0  0  0  0  0  0  0  0  0
   21.1761   20.4724   25.4433 H   0  0  0  0  0  0  0  0  0  0  0  0
   21.9781   18.9216   25.4688 H   0  0  0  0  0  0  0  0  0  0  0  0
   19.9274   18.8291   26.1166 C   0  0  2  0  0  0  0  0  0  0  0  0
   20.3271   18.8344   27.1354 H   0  0  0  0  0  0  0  0  0  0  0  0
   19.5811   17.3712   25.7675 C   0  0  0  0  0  0  0  0  0  0  0  0
   18.9067   16.9458   26.5207 H   0  0  0  0  0  0  0  0  0  0  0  0
   19.0854   17.2951   24.7923 H   0  0  0  0  0  0  0  0  0  0  0  0
   20.4863   16.7520   25.7432 H   0  0  0  0  0  0  0  0  0  0  0  0
   18.6929   19.6861   26.1714 N   0  3  0  0  0  0  0  0  0  0  0  0
   18.9123   20.6391   26.4753 H   0  0  0  0  0  0  0  0  0  0  0  0
   18.0041   19.3070   26.8276 H   0  0  0  0  0  0  0  0  0  0  0  0
   18.2448   19.7498   25.2551 H   0  0  0  0  0  0  0  0  0  0  0  0
  1  2  1  0  0  0  0
  1  3  1  0  0  0  0
  1  4  1  0  0  0  0
  1  5  1  0  0  0  0
  5  6  1  0  0  0  0
  5  7  1  0  0  0  0
  5  8  1  0  0  0  0
  8  9  1  0  0  0  0
  8 10  1  0  0  0  0
  8 11  1  0  0  0  0
 11 12  1  0  0  0  0
 11 13  1  0  0  0  0
 11 14  1  0  0  0  0
 14 15  1  0  0  0  0
 14 16  1  0  0  0  0
 14 17  1  0  0  0  0
 17 18  1  0  0  0  0
 17 19  1  0  0  0  0
 17 20  1  0  0  0  0
 20 21  1  0  0  0  0
 20 22  1  0  0  0  0
 22 23  1  0  0  0  0
 22 24  1  0  0  0  0
 22 25  1  0  0  0  0
 20 26  1  0  0  0  0
 26 27  1  0  0  0  0
 26 28  1  0  0  0  0
 26 29  1  0  0  0  0
M  END
> <VM2 Rank>
98

> <Conf_Id>
315

> <Probability>
0.02

> <Sum Probability>
99.45

> <Delta G>
3.829

> <G>
37.531

> <E>
-0.572

> <-TS>
38.103

> <U+W>
-24.717

> <U>
27.804

> <W>
-52.521

> <W(PB)>
-54.966

> <W(SA)>
2.445

> <Valence>
5.527

> <Coulomb>
21.305

> <VdW>
0.973

> <VdW6>
-10.820

> <VdW12>
11.793

> <Bond>
0.332

> <Angle>
2.322

> <Pdih>
2.873

> <Idih>
0.000

> <Tether>
0.000

$$$$
VeraChem MOL file


 29 28  0  0  0  0  0  0  0  0999 V2000     
   21.0222   20.1815   20.2302 C   0  0  0  0  0  0  0  0  0  0  0  0
   20.5034   21.1481   20.2702 H   0  0  0  0  0  0  0  0  0  0  0  0
   21.6549   20.0929   21.1220 H   0  0  0  0  0  0  0  0  0  0  0  0
   21.6852   20.1923   19.3555 H   0  0  0  0  0  0  0  0  0  0  0  0
   20.0146   19.0138   20.1302 C   0  0  0  0  0  0  0  0  0  0  0  0
   20.5564   18.0577   20.1252 H   0  0  0  0  0  0  0  0  0  0  0  0
   19.4941   19.0772   19.1644 H   0  0  0  0  0  0  0  0  0  0  0  0
   18.9598   19.0116   21.2629 C   0  0  0  0  0  0  0  0  0  0  0  0
   18.4051   19.9599   21.2495 H   0  0  0  0  0  0  0  0  0  0  0  0
   18.2261   18.2211   21.0536 H   0  0  0  0  0  0  0  0  0  0  0  0
   19.5656   18.7813   22.6680 C   0  0  0  0  0  0  0  0  0  0  0  0
   20.2480   19.6057   22.9085 H   0  0  0  0  0  0  0  0  0  0  0  0
   20.1590   17.8567   22.6635 H   0  0  0  0  0  0  0  0  0  0  0  0
   18.4701   18.6884   23.7558 C   0  0  0  0  0  0  0  0  0  0  0  0
   17.9206   19.6389   23.8027 H   0  0  0  0  0  0  0  0  0  0  0  0
   17.7372   17.9240   23.4629 H   0  0  0  0  0  0  0  0  0  0  0  0
   19.0060   18.3355   25.1666 C   0  0  0  0  0  0  0  0  0  0  0  0
   19.4810   17.3454   25.1530 H   0  0  0  0  0  0  0  0  0  0  0  0
   18.1374   18.2371   25.8312 H   0  0  0  0  0  0  0  0  0  0  0  0
   19.9748   19.3923   25.7508 C   0  0  2  0  0  0  0  0  0  0  0  0
   19.8223   20.3315   25.2103 H   0  0  0  0  0  0  0  0  0  0  0  0
   21.4455   18.9641   25.5941 C   0  0  0  0  0  0  0  0  0  0  0  0
   21.6534   18.0504   26.1649 H   0  0  0  0  0  0  0  0  0  0  0  0
   21.6999   18.7709   24.5462 H   0  0  0  0  0  0  0  0  0  0  0  0
   22.1175   19.7510   25.9580 H   0  0  0  0  0  0  0  0  0  0  0  0
   19.6774   19.6874   27.1953 N   0  3  0  0  0  0  0  0  0  0  0  0
   18.7171   20.0207   27.3215 H   0  0  0  0  0  0  0  0  0  0  0  0
   20.3016   20.4099   27.5656 H   0  0  0  0  0  0  0  0  0  0  0  0
   19.7940   18.8545   27.7789 H   0  0  0  0  0  0  0  0  0  0  0  0
  1  2  1  0  0  0  0
  1  3  1  0  0  0  0
  1  4  1  0  0  0  0
  1  5  1  0  0  0  0
  5  6  1  0  0  0  0
  5  7  1  0  0  0  0
  5  8  1  0  0  0  0
  8  9  1  0  0  0  0
  8 10  1  0  0  0  0
  8 11  1  0  0  0  0
 11 12  1  0  0  0  0
 11 13  1  0  0  0  0
 11 14  1  0  0  0  0
 14 15  1  0  0  0  0
 14 16  1  0  0  0  0
 14 17  1  0  0  0  0
 17 18  1  0  0  0  0
 17 19  1  0  0  0  0
 17 20  1  0  0  0  0
 20 21  1  0  0  0  0
 20 22  1  0  0  0  0
 22 23  1  0  0  0  0
 22 24  1  0  0  0  0
 22 25  1  0  0  0  0
 20 26  1  0  0  0  0
 26 27  1  0  0  0  0
 26 28  1  0  0  0  0
 26 29  1  0  0  0  0
M  END
> <VM2 Rank>
99

> <Conf_Id>
81

> <Probability>
0.02

> <Sum Probability>
99.47

> <Delta G>
3.849

> <G>
37.551

> <E>
-0.112

> <-TS>
37.662

> <U+W>
-24.256

> <U>
27.879

> <W>
-52.135

> <W(PB)>
-54.595

> <W(SA)>
2.460

> <Valence>
6.781

> <Coulomb>
19.866

> <VdW>
1.231

> <VdW6>
-9.740

> <VdW12>
10.971

> <Bond>
0.261

> <Angle>
1.615

> <Pdih>
4.906

> <Idih>
0.000

> <Tether>
0.000

$$$$
VeraChem MOL file


 29 28  0  0  0  0  0  0  0  0999 V2000     
   20.8593   19.9907   19.8046 C   0  0  0  0  0  0  0  0  0  0  0  0
   20.5692   19.3987   18.9268 H   0  0  0  0  0  0  0  0  0  0  0  0
   20.9979   21.0300   19.4794 H   0  0  0  0  0  0  0  0  0  0  0  0
   21.8274   19.6179   20.1638 H   0  0  0  0  0  0  0  0  0  0  0  0
   19.7872   19.9044   20.9113 C   0  0  0  0  0  0  0  0  0  0  0  0
   18.8415   20.3157   20.5317 H   0  0  0  0  0  0  0  0  0  0  0  0
   20.0878   20.5403   21.7525 H   0  0  0  0  0  0  0  0  0  0  0  0
   19.5665   18.4453   21.3782 C   0  0  0  0  0  0  0  0  0  0  0  0
   19.2371   17.8564   20.5111 H   0  0  0  0  0  0  0  0  0  0  0  0
   20.5162   17.9990   21.7038 H   0  0  0  0  0  0  0  0  0  0  0  0
   18.5011   18.3085   22.4970 C   0  0  0  0  0  0  0  0  0  0  0  0
   17.9461   17.3754   22.3273 H   0  0  0  0  0  0  0  0  0  0  0  0
   17.7571   19.1130   22.4166 H   0  0  0  0  0  0  0  0  0  0  0  0
   19.0750   18.2533   23.9364 C   0  0  0  0  0  0  0  0  0  0  0  0
   18.2404   18.0733   24.6264 H   0  0  0  0  0  0  0  0  0  0  0  0
   19.7378   17.3819   24.0213 H   0  0  0  0  0  0  0  0  0  0  0  0
   19.8355   19.5359   24.3658 C   0  0  0  0  0  0  0  0  0  0  0  0
   19.2157   20.4154   24.1480 H   0  0  0  0  0  0  0  0  0  0  0  0
   20.7445   19.6396   23.7604 H   0  0  0  0  0  0  0  0  0  0  0  0
   20.2436   19.5804   25.8573 C   0  0  2  0  0  0  0  0  0  0  0  0
   20.7657   20.5278   26.0234 H   0  0  0  0  0  0  0  0  0  0  0  0
   21.2128   18.4434   26.2247 C   0  0  0  0  0  0  0  0  0  0  0  0
   20.7260   17.4624   26.1690 H   0  0  0  0  0  0  0  0  0  0  0  0
   22.0789   18.4366   25.5512 H   0  0  0  0  0  0  0  0  0  0  0  0
   21.5876   18.5741   27.2473 H   0  0  0  0  0  0  0  0  0  0  0  0
   19.0550   19.5940   26.7787 N   0  3  0  0  0  0  0  0  0  0  0  0
   18.4258   20.3741   26.5682 H   0  0  0  0  0  0  0  0  0  0  0  0
   19.3415   19.6872   27.7574 H   0  0  0  0  0  0  0  0  0  0  0  0
   18.5129   18.7303   26.6985 H   0  0  0  0  0  0  0  0  0  0  0  0
  1  2  1  0  0  0  0
  1  3  1  0  0  0  0
  1  4  1  0  0  0  0
  1  5  1  0  0  0  0
  5  6  1  0  0  0  0
  5  7  1  0  0  0  0
  5  8  1  0  0  0  0
  8  9  1  0  0  0  0
  8 10  1  0  0  0  0
  8 11  1  0  0  0  0
 11 12  1  0  0  0  0
 11 13  1  0  0  0  0
 11 14  1  0  0  0  0
 14 15  1  0  0  0  0
 14 16  1  0  0  0  0
 14 17  1  0  0  0  0
 17 18  1  0  0  0  0
 17 19  1  0  0  0  0
 17 20  1  0  0  0  0
 20 21  1  0  0  0  0
 20 22  1  0  0  0  0
 22 23  1  0  0  0  0
 22 24  1  0  0  0  0
 22 25  1  0  0  0  0
 20 26  1  0  0  0  0
 26 27  1  0  0  0  0
 26 28  1  0  0  0  0
 26 29  1  0  0  0  0
M  END
> <VM2 Rank>
100

> <Conf_Id>
101

> <Probability>
0.02

> <Sum Probability>
99.49

> <Delta G>
3.861

> <G>
37.563

> <E>
-0.372

> <-TS>
37.935

> <U+W>
-24.517

> <U>
27.916

> <W>
-52.433

> <W(PB)>
-54.866

> <W(SA)>
2.433

> <Valence>
6.693

> <Coulomb>
20.015

> <VdW>
1.208

> <VdW6>
-10.294

> <VdW12>
11.503

> <Bond>
0.312

> <Angle>
1.939

> <Pdih>
4.441

> <Idih>
0.000

> <Tether>
0.000

$$$$
VeraChem MOL file


 29 28  0  0  0  0  0  0  0  0999 V2000     
   19.6270   20.0610   19.7016 C   0  0  0  0  0  0  0  0  0  0  0  0
   20.0698   20.1917   18.7058 H   0  0  0  0  0  0  0  0  0  0  0  0
   18.7725   19.3819   19.5943 H   0  0  0  0  0  0  0  0  0  0  0  0
   19.2511   21.0380   20.0321 H   0  0  0  0  0  0  0  0  0  0  0  0
   20.6773   19.5061   20.6907 C   0  0  0  0  0  0  0  0  0  0  0  0
   21.5631   20.1561   20.6623 H   0  0  0  0  0  0  0  0  0  0  0  0
   21.0135   18.5142   20.3579 H   0  0  0  0  0  0  0  0  0  0  0  0
   20.1704   19.4261   22.1511 C   0  0  0  0  0  0  0  0  0  0  0  0
   21.0291   19.1780   22.7872 H   0  0  0  0  0  0  0  0  0  0  0  0
   19.8115   20.4142   22.4698 H   0  0  0  0  0  0  0  0  0  0  0  0
   19.0610   18.3661   22.3622 C   0  0  0  0  0  0  0  0  0  0  0  0
   19.4627   17.3696   22.1326 H   0  0  0  0  0  0  0  0  0  0  0  0
   18.2477   18.5385   21.6462 H   0  0  0  0  0  0  0  0  0  0  0  0
   18.4399   18.3568   23.7833 C   0  0  0  0  0  0  0  0  0  0  0  0
   17.9236   19.3068   23.9710 H   0  0  0  0  0  0  0  0  0  0  0  0
   17.6527   17.5903   23.7913 H   0  0  0  0  0  0  0  0  0  0  0  0
   19.4339   18.0314   24.9314 C   0  0  0  0  0  0  0  0  0  0  0  0
   20.1529   17.2785   24.5821 H   0  0  0  0  0  0  0  0  0  0  0  0
   18.8803   17.5589   25.7538 H   0  0  0  0  0  0  0  0  0  0  0  0
   20.1882   19.2574   25.4969 C   0  0  2  0  0  0  0  0  0  0  0  0
   20.6757   19.7853   24.6743 H   0  0  0  0  0  0  0  0  0  0  0  0
   21.2749   18.8046   26.4846 C   0  0  0  0  0  0  0  0  0  0  0  0
   21.8345   19.6665   26.8686 H   0  0  0  0  0  0  0  0  0  0  0  0
   20.8383   18.2722   27.3390 H   0  0  0  0  0  0  0  0  0  0  0  0
   21.9920   18.1343   25.9945 H   0  0  0  0  0  0  0  0  0  0  0  0
   19.2635   20.2466   26.1522 N   0  3  0  0  0  0  0  0  0  0  0  0
   19.7753   21.0598   26.5063 H   0  0  0  0  0  0  0  0  0  0  0  0
   18.7697   19.8268   26.9443 H   0  0  0  0  0  0  0  0  0  0  0  0
   18.5573   20.5905   25.4960 H   0  0  0  0  0  0  0  0  0  0  0  0
  1  2  1  0  0  0  0
  1  3  1  0  0  0  0
  1  4  1  0  0  0  0
  1  5  1  0  0  0  0
  5  6  1  0  0  0  0
  5  7  1  0  0  0  0
  5  8  1  0  0  0  0
  8  9  1  0  0  0  0
  8 10  1  0  0  0  0
  8 11  1  0  0  0  0
 11 12  1  0  0  0  0
 11 13  1  0  0  0  0
 11 14  1  0  0  0  0
 14 15  1  0  0  0  0
 14 16  1  0  0  0  0
 14 17  1  0  0  0  0
 17 18  1  0  0  0  0
 17 19  1  0  0  0  0
 17 20  1  0  0  0  0
 20 21  1  0  0  0  0
 20 22  1  0  0  0  0
 22 23  1  0  0  0  0
 22 24  1  0  0  0  0
 22 25  1  0  0  0  0
 20 26  1  0  0  0  0
 26 27  1  0  0  0  0
 26 28  1  0  0  0  0
 26 29  1  0  0  0  0
M  END
> <VM2 Rank>
101

> <Conf_Id>
1367

> <Probability>
0.02

> <Sum Probability>
99.50

> <Delta G>
3.864

> <G>
37.566

> <E>
-0.216

> <-TS>
37.782

> <U+W>
-24.361

> <U>
28.056

> <W>
-52.416

> <W(PB)>
-54.880

> <W(SA)>
2.464

> <Valence>
6.325

> <Coulomb>
20.690

> <VdW>
1.041

> <VdW6>
-10.427

> <VdW12>
11.467

> <Bond>
0.315

> <Angle>
2.081

> <Pdih>
3.930

> <Idih>
0.000

> <Tether>
0.000

$$$$
VeraChem MOL file


 29 28  0  0  0  0  0  0  0  0999 V2000     
   18.7548   19.0296   19.6206 C   0  0  0  0  0  0  0  0  0  0  0  0
   17.9555   18.8929   20.3594 H   0  0  0  0  0  0  0  0  0  0  0  0
   18.7853   20.0900   19.3382 H   0  0  0  0  0  0  0  0  0  0  0  0
   18.4813   18.4521   18.7281 H   0  0  0  0  0  0  0  0  0  0  0  0
   20.1216   18.5615   20.1696 C   0  0  0  0  0  0  0  0  0  0  0  0
   20.8618   18.6027   19.3584 H   0  0  0  0  0  0  0  0  0  0  0  0
   20.0564   17.5073   20.4732 H   0  0  0  0  0  0  0  0  0  0  0  0
   20.6345   19.4164   21.3535 C   0  0  0  0  0  0  0  0  0  0  0  0
   21.6513   19.0860   21.6067 H   0  0  0  0  0  0  0  0  0  0  0  0
   20.7198   20.4656   21.0385 H   0  0  0  0  0  0  0  0  0  0  0  0
   19.7435   19.3204   22.6149 C   0  0  0  0  0  0  0  0  0  0  0  0
   19.6094   18.2658   22.8833 H   0  0  0  0  0  0  0  0  0  0  0  0
   18.7442   19.7178   22.3940 H   0  0  0  0  0  0  0  0  0  0  0  0
   20.3468   20.1103   23.8024 C   0  0  0  0  0  0  0  0  0  0  0  0
   21.3725   19.7741   24.0078 H   0  0  0  0  0  0  0  0  0  0  0  0
   20.4282   21.1648   23.5039 H   0  0  0  0  0  0  0  0  0  0  0  0
   19.4915   20.0300   25.0947 C   0  0  0  0  0  0  0  0  0  0  0  0
   18.4348   19.8686   24.8434 H   0  0  0  0  0  0  0  0  0  0  0  0
   19.5350   21.0110   25.5861 H   0  0  0  0  0  0  0  0  0  0  0  0
   19.9637   18.9741   26.1232 C   0  0  2  0  0  0  0  0  0  0  0  0
   21.0024   19.1963   26.3864 H   0  0  0  0  0  0  0  0  0  0  0  0
   19.9049   17.5380   25.5760 C   0  0  0  0  0  0  0  0  0  0  0  0
   18.9011   17.2937   25.2066 H   0  0  0  0  0  0  0  0  0  0  0  0
   20.6217   17.3994   24.7585 H   0  0  0  0  0  0  0  0  0  0  0  0
   20.1654   16.8148   26.3585 H   0  0  0  0  0  0  0  0  0  0  0  0
   19.1748   19.0757   27.3991 N   0  3  0  0  0  0  0  0  0  0  0  0
   19.5134   18.4122   28.1018 H   0  0  0  0  0  0  0  0  0  0  0  0
   18.1833   18.8753   27.2424 H   0  0  0  0  0  0  0  0  0  0  0  0
   19.2388   20.0122   27.8086 H   0  0  0  0  0  0  0  0  0  0  0  0
  1  2  1  0  0  0  0
  1  3  1  0  0  0  0
  1  4  1  0  0  0  0
  1  5  1  0  0  0  0
  5  6  1  0  0  0  0
  5  7  1  0  0  0  0
  5  8  1  0  0  0  0
  8  9  1  0  0  0  0
  8 10  1  0  0  0  0
  8 11  1  0  0  0  0
 11 12  1  0  0  0  0
 11 13  1  0  0  0  0
 11 14  1  0  0  0  0
 14 15  1  0  0  0  0
 14 16  1  0  0  0  0
 14 17  1  0  0  0  0
 17 18  1  0  0  0  0
 17 19  1  0  0  0  0
 17 20  1  0  0  0  0
 20 21  1  0  0  0  0
 20 22  1  0  0  0  0
 22 23  1  0  0  0  0
 22 24  1  0  0  0  0
 22 25  1  0  0  0  0
 20 26  1  0  0  0  0
 26 27  1  0  0  0  0
 26 28  1  0  0  0  0
 26 29  1  0  0  0  0
M  END
> <VM2 Rank>
102

> <Conf_Id>
284

> <Probability>
0.02

> <Sum Probability>
99.52

> <Delta G>
3.872

> <G>
37.574

> <E>
-0.213

> <-TS>
37.787

> <U+W>
-24.357

> <U>
27.696

> <W>
-52.053

> <W(PB)>
-54.526

> <W(SA)>
2.474

> <Valence>
6.761

> <Coulomb>
19.663

> <VdW>
1.272

> <VdW6>
-9.717

> <VdW12>
10.988

> <Bond>
0.286

> <Angle>
1.902

> <Pdih>
4.573

> <Idih>
0.000

> <Tether>
0.000

$$$$
VeraChem MOL file


 29 28  0  0  0  0  0  0  0  0999 V2000     
   21.2260   19.4057   20.2538 C   0  0  0  0  0  0  0  0  0  0  0  0
   22.2553   19.7844   20.2995 H   0  0  0  0  0  0  0  0  0  0  0  0
   21.2717   18.3299   20.0399 H   0  0  0  0  0  0  0  0  0  0  0  0
   20.7222   19.9005   19.4132 H   0  0  0  0  0  0  0  0  0  0  0  0
   20.4867   19.6757   21.5812 C   0  0  0  0  0  0  0  0  0  0  0  0
   20.4855   20.7563   21.7810 H   0  0  0  0  0  0  0  0  0  0  0  0
   21.0450   19.2048   22.3977 H   0  0  0  0  0  0  0  0  0  0  0  0
   19.0308   19.1523   21.5376 C   0  0  0  0  0  0  0  0  0  0  0  0
   18.5266   19.6262   20.6840 H   0  0  0  0  0  0  0  0  0  0  0  0
   19.0190   18.0728   21.3338 H   0  0  0  0  0  0  0  0  0  0  0  0
   18.2089   19.4633   22.8162 C   0  0  0  0  0  0  0  0  0  0  0  0
   17.1641   19.6154   22.5119 H   0  0  0  0  0  0  0  0  0  0  0  0
   18.5248   20.4203   23.2521 H   0  0  0  0  0  0  0  0  0  0  0  0
   18.2129   18.3384   23.8864 C   0  0  0  0  0  0  0  0  0  0  0  0
   17.4978   18.6039   24.6765 H   0  0  0  0  0  0  0  0  0  0  0  0
   17.8200   17.4167   23.4357 H   0  0  0  0  0  0  0  0  0  0  0  0
   19.5877   18.0285   24.5322 C   0  0  0  0  0  0  0  0  0  0  0  0
   20.2499   17.5915   23.7747 H   0  0  0  0  0  0  0  0  0  0  0  0
   19.4541   17.2489   25.2939 H   0  0  0  0  0  0  0  0  0  0  0  0
   20.2704   19.2552   25.1768 C   0  0  2  0  0  0  0  0  0  0  0  0
   20.3825   20.0290   24.4118 H   0  0  0  0  0  0  0  0  0  0  0  0
   21.6696   18.8813   25.6901 C   0  0  0  0  0  0  0  0  0  0  0  0
   22.2955   18.5001   24.8735 H   0  0  0  0  0  0  0  0  0  0  0  0
   22.1743   19.7578   26.1149 H   0  0  0  0  0  0  0  0  0  0  0  0
   21.6140   18.1088   26.4672 H   0  0  0  0  0  0  0  0  0  0  0  0
   19.4429   19.8555   26.2797 N   0  3  0  0  0  0  0  0  0  0  0  0
   19.2990   19.1884   27.0424 H   0  0  0  0  0  0  0  0  0  0  0  0
   18.5201   20.1385   25.9389 H   0  0  0  0  0  0  0  0  0  0  0  0
   19.8928   20.6848   26.6776 H   0  0  0  0  0  0  0  0  0  0  0  0
  1  2  1  0  0  0  0
  1  3  1  0  0  0  0
  1  4  1  0  0  0  0
  1  5  1  0  0  0  0
  5  6  1  0  0  0  0
  5  7  1  0  0  0  0
  5  8  1  0  0  0  0
  8  9  1  0  0  0  0
  8 10  1  0  0  0  0
  8 11  1  0  0  0  0
 11 12  1  0  0  0  0
 11 13  1  0  0  0  0
 11 14  1  0  0  0  0
 14 15  1  0  0  0  0
 14 16  1  0  0  0  0
 14 17  1  0  0  0  0
 17 18  1  0  0  0  0
 17 19  1  0  0  0  0
 17 20  1  0  0  0  0
 20 21  1  0  0  0  0
 20 22  1  0  0  0  0
 22 23  1  0  0  0  0
 22 24  1  0  0  0  0
 22 25  1  0  0  0  0
 20 26  1  0  0  0  0
 26 27  1  0  0  0  0
 26 28  1  0  0  0  0
 26 29  1  0  0  0  0
M  END
> <VM2 Rank>
103

> <Conf_Id>
323

> <Probability>
0.02

> <Sum Probability>
99.54

> <Delta G>
3.881

> <G>
37.583

> <E>
-0.646

> <-TS>
38.229

> <U+W>
-24.791

> <U>
27.761

> <W>
-52.552

> <W(PB)>
-54.968

> <W(SA)>
2.416

> <Valence>
6.483

> <Coulomb>
20.860

> <VdW>
0.418

> <VdW6>
-11.358

> <VdW12>
11.776

> <Bond>
0.310

> <Angle>
2.147

> <Pdih>
4.026

> <Idih>
0.000

> <Tether>
0.000

$$$$
VeraChem MOL file


 29 28  0  0  0  0  0  0  0  0999 V2000     
   20.5790   18.2672   19.8012 C   0  0  0  0  0  0  0  0  0  0  0  0
   20.4793   18.9929   18.9836 H   0  0  0  0  0  0  0  0  0  0  0  0
   21.5788   17.8190   19.7335 H   0  0  0  0  0  0  0  0  0  0  0  0
   19.8408   17.4702   19.6432 H   0  0  0  0  0  0  0  0  0  0  0  0
   20.3776   18.9450   21.1730 C   0  0  0  0  0  0  0  0  0  0  0  0
   21.1456   19.7183   21.3136 H   0  0  0  0  0  0  0  0  0  0  0  0
   20.5223   18.1955   21.9622 H   0  0  0  0  0  0  0  0  0  0  0  0
   18.9715   19.5749   21.2966 C   0  0  0  0  0  0  0  0  0  0  0  0
   18.7977   20.2320   20.4333 H   0  0  0  0  0  0  0  0  0  0  0  0
   18.2115   18.7838   21.2358 H   0  0  0  0  0  0  0  0  0  0  0  0
   18.7506   20.4022   22.5895 C   0  0  0  0  0  0  0  0  0  0  0  0
   17.7380   20.8261   22.5410 H   0  0  0  0  0  0  0  0  0  0  0  0
   19.4311   21.2646   22.6066 H   0  0  0  0  0  0  0  0  0  0  0  0
   18.8730   19.5910   23.9057 C   0  0  0  0  0  0  0  0  0  0  0  0
   18.1247   19.9724   24.6130 H   0  0  0  0  0  0  0  0  0  0  0  0
   18.6074   18.5430   23.7165 H   0  0  0  0  0  0  0  0  0  0  0  0
   20.2769   19.7026   24.5629 C   0  0  0  0  0  0  0  0  0  0  0  0
   20.4821   20.7579   24.7852 H   0  0  0  0  0  0  0  0  0  0  0  0
   21.0540   19.3935   23.8551 H   0  0  0  0  0  0  0  0  0  0  0  0
   20.4507   18.8890   25.8668 C   0  0  2  0  0  0  0  0  0  0  0  0
   21.4513   19.1057   26.2537 H   0  0  0  0  0  0  0  0  0  0  0  0
   20.3689   17.3731   25.6161 C   0  0  0  0  0  0  0  0  0  0  0  0
   19.3604   17.0640   25.3175 H   0  0  0  0  0  0  0  0  0  0  0  0
   21.0692   17.0696   24.8280 H   0  0  0  0  0  0  0  0  0  0  0  0
   20.6324   16.8197   26.5258 H   0  0  0  0  0  0  0  0  0  0  0  0
   19.4878   19.3109   26.9422 N   0  3  0  0  0  0  0  0  0  0  0  0
   19.5680   20.3112   27.1464 H   0  0  0  0  0  0  0  0  0  0  0  0
   19.6579   18.8051   27.8161 H   0  0  0  0  0  0  0  0  0  0  0  0
   18.5199   19.1291   26.6652 H   0  0  0  0  0  0  0  0  0  0  0  0
  1  2  1  0  0  0  0
  1  3  1  0  0  0  0
  1  4  1  0  0  0  0
  1  5  1  0  0  0  0
  5  6  1  0  0  0  0
  5  7  1  0  0  0  0
  5  8  1  0  0  0  0
  8  9  1  0  0  0  0
  8 10  1  0  0  0  0
  8 11  1  0  0  0  0
 11 12  1  0  0  0  0
 11 13  1  0  0  0  0
 11 14  1  0  0  0  0
 14 15  1  0  0  0  0
 14 16  1  0  0  0  0
 14 17  1  0  0  0  0
 17 18  1  0  0  0  0
 17 19  1  0  0  0  0
 17 20  1  0  0  0  0
 20 21  1  0  0  0  0
 20 22  1  0  0  0  0
 22 23  1  0  0  0  0
 22 24  1  0  0  0  0
 22 25  1  0  0  0  0
 20 26  1  0  0  0  0
 26 27  1  0  0  0  0
 26 28  1  0  0  0  0
 26 29  1  0  0  0  0
M  END
> <VM2 Rank>
104

> <Conf_Id>
318

> <Probability>
0.02

> <Sum Probability>
99.55

> <Delta G>
3.901

> <G>
37.603

> <E>
-0.307

> <-TS>
37.910

> <U+W>
-24.452

> <U>
27.947

> <W>
-52.399

> <W(PB)>
-54.845

> <W(SA)>
2.447

> <Valence>
6.732

> <Coulomb>
20.067

> <VdW>
1.149

> <VdW6>
-10.427

> <VdW12>
11.576

> <Bond>
0.324

> <Angle>
1.942

> <Pdih>
4.466

> <Idih>
0.000

> <Tether>
0.000

$$$$
VeraChem MOL file


 29 28  0  0  0  0  0  0  0  0999 V2000     
   19.2984   18.3386   20.0523 C   0  0  0  0  0  0  0  0  0  0  0  0
   19.4286   17.8896   19.0592 H   0  0  0  0  0  0  0  0  0  0  0  0
   19.6028   17.5892   20.7933 H   0  0  0  0  0  0  0  0  0  0  0  0
   18.2300   18.5511   20.1875 H   0  0  0  0  0  0  0  0  0  0  0  0
   20.1423   19.6257   20.1773 C   0  0  0  0  0  0  0  0  0  0  0  0
   19.9168   20.2792   19.3231 H   0  0  0  0  0  0  0  0  0  0  0  0
   21.2083   19.3719   20.0931 H   0  0  0  0  0  0  0  0  0  0  0  0
   19.9004   20.4232   21.4842 C   0  0  0  0  0  0  0  0  0  0  0  0
   20.5121   21.3345   21.4328 H   0  0  0  0  0  0  0  0  0  0  0  0
   18.8583   20.7685   21.5286 H   0  0  0  0  0  0  0  0  0  0  0  0
   20.2726   19.6636   22.7840 C   0  0  0  0  0  0  0  0  0  0  0  0
   20.6985   20.3873   23.4916 H   0  0  0  0  0  0  0  0  0  0  0  0
   21.0685   18.9348   22.5780 H   0  0  0  0  0  0  0  0  0  0  0  0
   19.0613   18.9660   23.4545 C   0  0  0  0  0  0  0  0  0  0  0  0
   18.3147   19.7185   23.7410 H   0  0  0  0  0  0  0  0  0  0  0  0
   18.5600   18.3106   22.7326 H   0  0  0  0  0  0  0  0  0  0  0  0
   19.4557   18.1161   24.6895 C   0  0  0  0  0  0  0  0  0  0  0  0
   20.1231   17.3078   24.3621 H   0  0  0  0  0  0  0  0  0  0  0  0
   18.5572   17.6282   25.0900 H   0  0  0  0  0  0  0  0  0  0  0  0
   20.1484   18.9154   25.8158 C   0  0  2  0  0  0  0  0  0  0  0  0
   21.0500   19.3794   25.4053 H   0  0  0  0  0  0  0  0  0  0  0  0
   20.5703   17.9761   26.9567 C   0  0  0  0  0  0  0  0  0  0  0  0
   19.6996   17.4860   27.4102 H   0  0  0  0  0  0  0  0  0  0  0  0
   21.2482   17.1961   26.5884 H   0  0  0  0  0  0  0  0  0  0  0  0
   21.0974   18.5316   27.7421 H   0  0  0  0  0  0  0  0  0  0  0  0
   19.2867   20.0313   26.3396 N   0  3  0  0  0  0  0  0  0  0  0  0
   19.0299   20.6831   25.5933 H   0  0  0  0  0  0  0  0  0  0  0  0
   19.7693   20.5683   27.0658 H   0  0  0  0  0  0  0  0  0  0  0  0
   18.4198   19.6720   26.7481 H   0  0  0  0  0  0  0  0  0  0  0  0
  1  2  1  0  0  0  0
  1  3  1  0  0  0  0
  1  4  1  0  0  0  0
  1  5  1  0  0  0  0
  5  6  1  0  0  0  0
  5  7  1  0  0  0  0
  5  8  1  0  0  0  0
  8  9  1  0  0  0  0
  8 10  1  0  0  0  0
  8 11  1  0  0  0  0
 11 12  1  0  0  0  0
 11 13  1  0  0  0  0
 11 14  1  0  0  0  0
 14 15  1  0  0  0  0
 14 16  1  0  0  0  0
 14 17  1  0  0  0  0
 17 18  1  0  0  0  0
 17 19  1  0  0  0  0
 17 20  1  0  0  0  0
 20 21  1  0  0  0  0
 20 22  1  0  0  0  0
 22 23  1  0  0  0  0
 22 24  1  0  0  0  0
 22 25  1  0  0  0  0
 20 26  1  0  0  0  0
 26 27  1  0  0  0  0
 26 28  1  0  0  0  0
 26 29  1  0  0  0  0
M  END
> <VM2 Rank>
105

> <Conf_Id>
192

> <Probability>
0.02

> <Sum Probability>
99.57

> <Delta G>
3.905

> <G>
37.607

> <E>
-0.356

> <-TS>
37.963

> <U+W>
-24.500

> <U>
27.887

> <W>
-52.387

> <W(PB)>
-54.850

> <W(SA)>
2.462

> <Valence>
6.471

> <Coulomb>
20.362

> <VdW>
1.054

> <VdW6>
-10.398

> <VdW12>
11.452

> <Bond>
0.305

> <Angle>
1.802

> <Pdih>
4.363

> <Idih>
0.000

> <Tether>
0.000

$$$$
VeraChem MOL file


 29 28  0  0  0  0  0  0  0  0999 V2000     
   19.0144   20.8003   20.3257 C   0  0  0  0  0  0  0  0  0  0  0  0
   18.5066   21.0225   21.2722 H   0  0  0  0  0  0  0  0  0  0  0  0
   19.9483   21.3762   20.2917 H   0  0  0  0  0  0  0  0  0  0  0  0
   18.3690   21.1595   19.5136 H   0  0  0  0  0  0  0  0  0  0  0  0
   19.2884   19.2873   20.1687 C   0  0  0  0  0  0  0  0  0  0  0  0
   19.6775   19.1017   19.1578 H   0  0  0  0  0  0  0  0  0  0  0  0
   18.3435   18.7309   20.2411 H   0  0  0  0  0  0  0  0  0  0  0  0
   20.3022   18.7342   21.1992 C   0  0  0  0  0  0  0  0  0  0  0  0
   20.5211   17.6882   20.9437 H   0  0  0  0  0  0  0  0  0  0  0  0
   21.2518   19.2796   21.1091 H   0  0  0  0  0  0  0  0  0  0  0  0
   19.7965   18.8041   22.6600 C   0  0  0  0  0  0  0  0  0  0  0  0
   18.8266   18.2933   22.7347 H   0  0  0  0  0  0  0  0  0  0  0  0
   19.6419   19.8542   22.9320 H   0  0  0  0  0  0  0  0  0  0  0  0
   20.8026   18.1608   23.6439 C   0  0  0  0  0  0  0  0  0  0  0  0
   21.0846   17.1691   23.2639 H   0  0  0  0  0  0  0  0  0  0  0  0
   21.7273   18.7541   23.6610 H   0  0  0  0  0  0  0  0  0  0  0  0
   20.2762   17.9830   25.0925 C   0  0  0  0  0  0  0  0  0  0  0  0
   21.0447   17.4292   25.6483 H   0  0  0  0  0  0  0  0  0  0  0  0
   19.3849   17.3418   25.0955 H   0  0  0  0  0  0  0  0  0  0  0  0
   19.9787   19.3030   25.8427 C   0  0  2  0  0  0  0  0  0  0  0  0
   20.7538   20.0305   25.5826 H   0  0  0  0  0  0  0  0  0  0  0  0
   20.0215   19.0767   27.3629 C   0  0  0  0  0  0  0  0  0  0  0  0
   19.8268   20.0127   27.9009 H   0  0  0  0  0  0  0  0  0  0  0  0
   19.2711   18.3397   27.6756 H   0  0  0  0  0  0  0  0  0  0  0  0
   21.0084   18.7142   27.6766 H   0  0  0  0  0  0  0  0  0  0  0  0
   18.6554   19.9066   25.4584 N   0  3  0  0  0  0  0  0  0  0  0  0
   18.5992   20.0742   24.4513 H   0  0  0  0  0  0  0  0  0  0  0  0
   18.5017   20.8020   25.9312 H   0  0  0  0  0  0  0  0  0  0  0  0
   17.8790   19.2896   25.7121 H   0  0  0  0  0  0  0  0  0  0  0  0
  1  2  1  0  0  0  0
  1  3  1  0  0  0  0
  1  4  1  0  0  0  0
  1  5  1  0  0  0  0
  5  6  1  0  0  0  0
  5  7  1  0  0  0  0
  5  8  1  0  0  0  0
  8  9  1  0  0  0  0
  8 10  1  0  0  0  0
  8 11  1  0  0  0  0
 11 12  1  0  0  0  0
 11 13  1  0  0  0  0
 11 14  1  0  0  0  0
 14 15  1  0  0  0  0
 14 16  1  0  0  0  0
 14 17  1  0  0  0  0
 17 18  1  0  0  0  0
 17 19  1  0  0  0  0
 17 20  1  0  0  0  0
 20 21  1  0  0  0  0
 20 22  1  0  0  0  0
 22 23  1  0  0  0  0
 22 24  1  0  0  0  0
 22 25  1  0  0  0  0
 20 26  1  0  0  0  0
 26 27  1  0  0  0  0
 26 28  1  0  0  0  0
 26 29  1  0  0  0  0
M  END
> <VM2 Rank>
106

> <Conf_Id>
1113

> <Probability>
0.01

> <Sum Probability>
99.58

> <Delta G>
3.944

> <G>
37.646

> <E>
0.133

> <-TS>
37.513

> <U+W>
-24.012

> <U>
27.949

> <W>
-51.961

> <W(PB)>
-54.444

> <W(SA)>
2.484

> <Valence>
5.463

> <Coulomb>
21.337

> <VdW>
1.149

> <VdW6>
-9.730

> <VdW12>
10.879

> <Bond>
0.280

> <Angle>
1.828

> <Pdih>
3.355

> <Idih>
0.000

> <Tether>
0.000

$$$$
VeraChem MOL file


 29 28  0  0  0  0  0  0  0  0999 V2000     
   18.5414   18.9173   19.6882 C   0  0  0  0  0  0  0  0  0  0  0  0
   17.5912   18.8116   20.2277 H   0  0  0  0  0  0  0  0  0  0  0  0
   18.6059   19.9449   19.3072 H   0  0  0  0  0  0  0  0  0  0  0  0
   18.5165   18.2390   18.8255 H   0  0  0  0  0  0  0  0  0  0  0  0
   19.7391   18.5896   20.6046 C   0  0  0  0  0  0  0  0  0  0  0  0
   20.6716   18.6700   20.0286 H   0  0  0  0  0  0  0  0  0  0  0  0
   19.6642   17.5467   20.9431 H   0  0  0  0  0  0  0  0  0  0  0  0
   19.7978   19.5315   21.8272 C   0  0  0  0  0  0  0  0  0  0  0  0
   19.8764   20.5722   21.4840 H   0  0  0  0  0  0  0  0  0  0  0  0
   18.8564   19.4537   22.3853 H   0  0  0  0  0  0  0  0  0  0  0  0
   20.9969   19.2013   22.7484 C   0  0  0  0  0  0  0  0  0  0  0  0
   21.9222   19.2736   22.1602 H   0  0  0  0  0  0  0  0  0  0  0  0
   20.9416   18.1596   23.0893 H   0  0  0  0  0  0  0  0  0  0  0  0
   21.1195   20.1531   23.9642 C   0  0  0  0  0  0  0  0  0  0  0  0
   22.0538   19.9255   24.4959 H   0  0  0  0  0  0  0  0  0  0  0  0
   21.2295   21.1826   23.5965 H   0  0  0  0  0  0  0  0  0  0  0  0
   19.9468   20.1090   24.9802 C   0  0  0  0  0  0  0  0  0  0  0  0
   19.0042   20.4054   24.5031 H   0  0  0  0  0  0  0  0  0  0  0  0
   20.1463   20.8857   25.7303 H   0  0  0  0  0  0  0  0  0  0  0  0
   19.7907   18.7482   25.7028 C   0  0  2  0  0  0  0  0  0  0  0  0
   20.7432   18.2137   25.6359 H   0  0  0  0  0  0  0  0  0  0  0  0
   18.6896   17.8792   25.0679 C   0  0  0  0  0  0  0  0  0  0  0  0
   18.6113   16.9163   25.5875 H   0  0  0  0  0  0  0  0  0  0  0  0
   17.7124   18.3747   25.1248 H   0  0  0  0  0  0  0  0  0  0  0  0
   18.8997   17.6651   24.0151 H   0  0  0  0  0  0  0  0  0  0  0  0
   19.5141   18.9269   27.1705 N   0  3  0  0  0  0  0  0  0  0  0  0
   20.2568   19.4608   27.6313 H   0  0  0  0  0  0  0  0  0  0  0  0
   19.4449   18.0249   27.6503 H   0  0  0  0  0  0  0  0  0  0  0  0
   18.6335   19.4247   27.3271 H   0  0  0  0  0  0  0  0  0  0  0  0
  1  2  1  0  0  0  0
  1  3  1  0  0  0  0
  1  4  1  0  0  0  0
  1  5  1  0  0  0  0
  5  6  1  0  0  0  0
  5  7  1  0  0  0  0
  5  8  1  0  0  0  0
  8  9  1  0  0  0  0
  8 10  1  0  0  0  0
  8 11  1  0  0  0  0
 11 12  1  0  0  0  0
 11 13  1  0  0  0  0
 11 14  1  0  0  0  0
 14 15  1  0  0  0  0
 14 16  1  0  0  0  0
 14 17  1  0  0  0  0
 17 18  1  0  0  0  0
 17 19  1  0  0  0  0
 17 20  1  0  0  0  0
 20 21  1  0  0  0  0
 20 22  1  0  0  0  0
 22 23  1  0  0  0  0
 22 24  1  0  0  0  0
 22 25  1  0  0  0  0
 20 26  1  0  0  0  0
 26 27  1  0  0  0  0
 26 28  1  0  0  0  0
 26 29  1  0  0  0  0
M  END
> <VM2 Rank>
107

> <Conf_Id>
281

> <Probability>
0.01

> <Sum Probability>
99.59

> <Delta G>
3.952

> <G>
37.654

> <E>
-0.364

> <-TS>
38.018

> <U+W>
-24.508

> <U>
27.828

> <W>
-52.337

> <W(PB)>
-54.787

> <W(SA)>
2.450

> <Valence>
6.936

> <Coulomb>
20.038

> <VdW>
0.855

> <VdW6>
-10.295

> <VdW12>
11.150

> <Bond>
0.273

> <Angle>
1.992

> <Pdih>
4.671

> <Idih>
0.000

> <Tether>
0.000

$$$$
VeraChem MOL file


 29 28  0  0  0  0  0  0  0  0999 V2000     
   18.6283   20.2710   19.9843 C   0  0  0  0  0  0  0  0  0  0  0  0
   18.7811   21.2575   20.4410 H   0  0  0  0  0  0  0  0  0  0  0  0
   19.2114   20.2304   19.0549 H   0  0  0  0  0  0  0  0  0  0  0  0
   17.5665   20.1826   19.7201 H   0  0  0  0  0  0  0  0  0  0  0  0
   19.0453   19.1424   20.9506 C   0  0  0  0  0  0  0  0  0  0  0  0
   18.8477   18.1701   20.4780 H   0  0  0  0  0  0  0  0  0  0  0  0
   18.4155   19.1853   21.8475 H   0  0  0  0  0  0  0  0  0  0  0  0
   20.5434   19.2389   21.3276 C   0  0  0  0  0  0  0  0  0  0  0  0
   21.1338   19.1435   20.4058 H   0  0  0  0  0  0  0  0  0  0  0  0
   20.7746   20.2337   21.7327 H   0  0  0  0  0  0  0  0  0  0  0  0
   20.9998   18.1382   22.3203 C   0  0  0  0  0  0  0  0  0  0  0  0
   22.0134   17.8219   22.0375 H   0  0  0  0  0  0  0  0  0  0  0  0
   20.3712   17.2434   22.2131 H   0  0  0  0  0  0  0  0  0  0  0  0
   21.0469   18.5801   23.8061 C   0  0  0  0  0  0  0  0  0  0  0  0
   21.4485   17.7419   24.3891 H   0  0  0  0  0  0  0  0  0  0  0  0
   21.7653   19.4039   23.9181 H   0  0  0  0  0  0  0  0  0  0  0  0
   19.6762   19.0125   24.3859 C   0  0  0  0  0  0  0  0  0  0  0  0
   18.9388   18.2126   24.2372 H   0  0  0  0  0  0  0  0  0  0  0  0
   19.3184   19.8834   23.8237 H   0  0  0  0  0  0  0  0  0  0  0  0
   19.7264   19.4037   25.8808 C   0  0  2  0  0  0  0  0  0  0  0  0
   20.5215   20.1434   26.0161 H   0  0  0  0  0  0  0  0  0  0  0  0
   20.0206   18.1969   26.7903 C   0  0  0  0  0  0  0  0  0  0  0  0
   21.0182   17.7851   26.6002 H   0  0  0  0  0  0  0  0  0  0  0  0
   19.9897   18.4929   27.8461 H   0  0  0  0  0  0  0  0  0  0  0  0
   19.2840   17.3979   26.6400 H   0  0  0  0  0  0  0  0  0  0  0  0
   18.4492   20.0724   26.3080 N   0  3  0  0  0  0  0  0  0  0  0  0
   18.2536   20.9063   25.7466 H   0  0  0  0  0  0  0  0  0  0  0  0
   18.4918   20.3681   27.2876 H   0  0  0  0  0  0  0  0  0  0  0  0
   17.6478   19.4425   26.2139 H   0  0  0  0  0  0  0  0  0  0  0  0
  1  2  1  0  0  0  0
  1  3  1  0  0  0  0
  1  4  1  0  0  0  0
  1  5  1  0  0  0  0
  5  6  1  0  0  0  0
  5  7  1  0  0  0  0
  5  8  1  0  0  0  0
  8  9  1  0  0  0  0
  8 10  1  0  0  0  0
  8 11  1  0  0  0  0
 11 12  1  0  0  0  0
 11 13  1  0  0  0  0
 11 14  1  0  0  0  0
 14 15  1  0  0  0  0
 14 16  1  0  0  0  0
 14 17  1  0  0  0  0
 17 18  1  0  0  0  0
 17 19  1  0  0  0  0
 17 20  1  0  0  0  0
 20 21  1  0  0  0  0
 20 22  1  0  0  0  0
 22 23  1  0  0  0  0
 22 24  1  0  0  0  0
 22 25  1  0  0  0  0
 20 26  1  0  0  0  0
 26 27  1  0  0  0  0
 26 28  1  0  0  0  0
 26 29  1  0  0  0  0
M  END
> <VM2 Rank>
108

> <Conf_Id>
168

> <Probability>
0.01

> <Sum Probability>
99.61

> <Delta G>
3.966

> <G>
37.668

> <E>
-0.059

> <-TS>
37.727

> <U+W>
-24.204

> <U>
28.399

> <W>
-52.602

> <W(PB)>
-55.068

> <W(SA)>
2.466

> <Valence>
6.895

> <Coulomb>
20.214

> <VdW>
1.289

> <VdW6>
-9.762

> <VdW12>
11.051

> <Bond>
0.294

> <Angle>
1.988

> <Pdih>
4.614

> <Idih>
0.000

> <Tether>
0.000

$$$$
VeraChem MOL file


 29 28  0  0  0  0  0  0  0  0999 V2000     
   20.7422   18.8104   19.7251 C   0  0  0  0  0  0  0  0  0  0  0  0
   19.8841   18.5350   19.0982 H   0  0  0  0  0  0  0  0  0  0  0  0
   21.1374   19.7684   19.3626 H   0  0  0  0  0  0  0  0  0  0  0  0
   21.5211   18.0499   19.5836 H   0  0  0  0  0  0  0  0  0  0  0  0
   20.3357   18.9037   21.2110 C   0  0  0  0  0  0  0  0  0  0  0  0
   21.2177   19.1562   21.8159 H   0  0  0  0  0  0  0  0  0  0  0  0
   19.9843   17.9177   21.5408 H   0  0  0  0  0  0  0  0  0  0  0  0
   19.2263   19.9563   21.4334 C   0  0  0  0  0  0  0  0  0  0  0  0
   19.5234   20.8943   20.9442 H   0  0  0  0  0  0  0  0  0  0  0  0
   18.3065   19.6286   20.9298 H   0  0  0  0  0  0  0  0  0  0  0  0
   18.9197   20.2666   22.9213 C   0  0  0  0  0  0  0  0  0  0  0  0
   18.1588   21.0592   22.9365 H   0  0  0  0  0  0  0  0  0  0  0  0
   19.8039   20.7055   23.3997 H   0  0  0  0  0  0  0  0  0  0  0  0
   18.3728   19.0677   23.7446 C   0  0  0  0  0  0  0  0  0  0  0  0
   17.6549   19.4496   24.4825 H   0  0  0  0  0  0  0  0  0  0  0  0
   17.7861   18.4105   23.0882 H   0  0  0  0  0  0  0  0  0  0  0  0
   19.4460   18.2269   24.4911 C   0  0  0  0  0  0  0  0  0  0  0  0
   20.1183   17.7535   23.7678 H   0  0  0  0  0  0  0  0  0  0  0  0
   18.9429   17.4027   25.0140 H   0  0  0  0  0  0  0  0  0  0  0  0
   20.2925   19.0244   25.5092 C   0  0  2  0  0  0  0  0  0  0  0  0
   20.8141   19.8244   24.9764 H   0  0  0  0  0  0  0  0  0  0  0  0
   21.3503   18.1142   26.1530 C   0  0  0  0  0  0  0  0  0  0  0  0
   21.9807   18.6827   26.8478 H   0  0  0  0  0  0  0  0  0  0  0  0
   20.8820   17.2931   26.7101 H   0  0  0  0  0  0  0  0  0  0  0  0
   22.0063   17.6785   25.3890 H   0  0  0  0  0  0  0  0  0  0  0  0
   19.4505   19.6858   26.5653 N   0  3  0  0  0  0  0  0  0  0  0  0
   18.7697   20.3269   26.1487 H   0  0  0  0  0  0  0  0  0  0  0  0
   20.0245   20.2276   27.2176 H   0  0  0  0  0  0  0  0  0  0  0  0
   18.9303   18.9958   27.1135 H   0  0  0  0  0  0  0  0  0  0  0  0
  1  2  1  0  0  0  0
  1  3  1  0  0  0  0
  1  4  1  0  0  0  0
  1  5  1  0  0  0  0
  5  6  1  0  0  0  0
  5  7  1  0  0  0  0
  5  8  1  0  0  0  0
  8  9  1  0  0  0  0
  8 10  1  0  0  0  0
  8 11  1  0  0  0  0
 11 12  1  0  0  0  0
 11 13  1  0  0  0  0
 11 14  1  0  0  0  0
 14 15  1  0  0  0  0
 14 16  1  0  0  0  0
 14 17  1  0  0  0  0
 17 18  1  0  0  0  0
 17 19  1  0  0  0  0
 17 20  1  0  0  0  0
 20 21  1  0  0  0  0
 20 22  1  0  0  0  0
 22 23  1  0  0  0  0
 22 24  1  0  0  0  0
 22 25  1  0  0  0  0
 20 26  1  0  0  0  0
 26 27  1  0  0  0  0
 26 28  1  0  0  0  0
 26 29  1  0  0  0  0
M  END
> <VM2 Rank>
109

> <Conf_Id>
326

> <Probability>
0.01

> <Sum Probability>
99.62

> <Delta G>
3.972

> <G>
37.674

> <E>
0.011

> <-TS>
37.663

> <U+W>
-24.134

> <U>
28.213

> <W>
-52.347

> <W(PB)>
-54.785

> <W(SA)>
2.438

> <Valence>
6.654

> <Coulomb>
20.544

> <VdW>
1.015

> <VdW6>
-10.510

> <VdW12>
11.524

> <Bond>
0.340

> <Angle>
2.190

> <Pdih>
4.124

> <Idih>
0.000

> <Tether>
0.000

$$$$
VeraChem MOL file


 29 28  0  0  0  0  0  0  0  0999 V2000     
   19.2374   20.6229   19.9085 C   0  0  0  0  0  0  0  0  0  0  0  0
   20.2188   21.0677   19.6983 H   0  0  0  0  0  0  0  0  0  0  0  0
   18.9496   20.0063   19.0469 H   0  0  0  0  0  0  0  0  0  0  0  0
   18.5090   21.4394   19.9965 H   0  0  0  0  0  0  0  0  0  0  0  0
   19.2749   19.7844   21.2036 C   0  0  0  0  0  0  0  0  0  0  0  0
   19.5289   20.4432   22.0445 H   0  0  0  0  0  0  0  0  0  0  0  0
   18.2744   19.3753   21.4016 H   0  0  0  0  0  0  0  0  0  0  0  0
   20.3016   18.6329   21.1076 C   0  0  0  0  0  0  0  0  0  0  0  0
   20.0998   18.0506   20.1979 H   0  0  0  0  0  0  0  0  0  0  0  0
   21.3095   19.0525   20.9838 H   0  0  0  0  0  0  0  0  0  0  0  0
   20.2931   17.6633   22.3176 C   0  0  0  0  0  0  0  0  0  0  0  0
   21.0231   16.8689   22.1089 H   0  0  0  0  0  0  0  0  0  0  0  0
   19.3200   17.1583   22.3910 H   0  0  0  0  0  0  0  0  0  0  0  0
   20.6649   18.3175   23.6738 C   0  0  0  0  0  0  0  0  0  0  0  0
   21.2621   17.5956   24.2464 H   0  0  0  0  0  0  0  0  0  0  0  0
   21.3148   19.1876   23.5067 H   0  0  0  0  0  0  0  0  0  0  0  0
   19.4280   18.7198   24.5191 C   0  0  0  0  0  0  0  0  0  0  0  0
   18.8716   17.8175   24.8056 H   0  0  0  0  0  0  0  0  0  0  0  0
   18.7440   19.3165   23.9054 H   0  0  0  0  0  0  0  0  0  0  0  0
   19.7799   19.5341   25.7850 C   0  0  2  0  0  0  0  0  0  0  0  0
   20.3627   20.4084   25.4792 H   0  0  0  0  0  0  0  0  0  0  0  0
   20.6159   18.7181   26.7872 C   0  0  0  0  0  0  0  0  0  0  0  0
   20.8055   19.3010   27.6969 H   0  0  0  0  0  0  0  0  0  0  0  0
   20.0986   17.7948   27.0765 H   0  0  0  0  0  0  0  0  0  0  0  0
   21.5915   18.4487   26.3663 H   0  0  0  0  0  0  0  0  0  0  0  0
   18.5403   20.0630   26.4515 N   0  3  0  0  0  0  0  0  0  0  0  0
   18.7709   20.6358   27.2686 H   0  0  0  0  0  0  0  0  0  0  0  0
   17.9352   19.3025   26.7729 H   0  0  0  0  0  0  0  0  0  0  0  0
   17.9897   20.6473   25.8157 H   0  0  0  0  0  0  0  0  0  0  0  0
  1  2  1  0  0  0  0
  1  3  1  0  0  0  0
  1  4  1  0  0  0  0
  1  5  1  0  0  0  0
  5  6  1  0  0  0  0
  5  7  1  0  0  0  0
  5  8  1  0  0  0  0
  8  9  1  0  0  0  0
  8 10  1  0  0  0  0
  8 11  1  0  0  0  0
 11 12  1  0  0  0  0
 11 13  1  0  0  0  0
 11 14  1  0  0  0  0
 14 15  1  0  0  0  0
 14 16  1  0  0  0  0
 14 17  1  0  0  0  0
 17 18  1  0  0  0  0
 17 19  1  0  0  0  0
 17 20  1  0  0  0  0
 20 21  1  0  0  0  0
 20 22  1  0  0  0  0
 22 23  1  0  0  0  0
 22 24  1  0  0  0  0
 22 25  1  0  0  0  0
 20 26  1  0  0  0  0
 26 27  1  0  0  0  0
 26 28  1  0  0  0  0
 26 29  1  0  0  0  0
M  END
> <VM2 Rank>
110

> <Conf_Id>
690

> <Probability>
0.01

> <Sum Probability>
99.63

> <Delta G>
3.983

> <G>
37.685

> <E>
-0.143

> <-TS>
37.828

> <U+W>
-24.288

> <U>
28.312

> <W>
-52.600

> <W(PB)>
-55.091

> <W(SA)>
2.492

> <Valence>
6.782

> <Coulomb>
20.298

> <VdW>
1.231

> <VdW6>
-9.819

> <VdW12>
11.050

> <Bond>
0.292

> <Angle>
1.856

> <Pdih>
4.635

> <Idih>
0.000

> <Tether>
0.000

$$$$
VeraChem MOL file


 29 28  0  0  0  0  0  0  0  0999 V2000     
   18.8215   20.2700   20.1140 C   0  0  0  0  0  0  0  0  0  0  0  0
   18.0571   20.3442   19.3298 H   0  0  0  0  0  0  0  0  0  0  0  0
   18.4380   20.7933   20.9986 H   0  0  0  0  0  0  0  0  0  0  0  0
   19.7164   20.7993   19.7618 H   0  0  0  0  0  0  0  0  0  0  0  0
   19.1376   18.7890   20.4226 C   0  0  0  0  0  0  0  0  0  0  0  0
   19.3992   18.2799   19.4845 H   0  0  0  0  0  0  0  0  0  0  0  0
   18.2350   18.2898   20.8017 H   0  0  0  0  0  0  0  0  0  0  0  0
   20.2997   18.6046   21.4280 C   0  0  0  0  0  0  0  0  0  0  0  0
   20.5242   17.5321   21.5090 H   0  0  0  0  0  0  0  0  0  0  0  0
   21.2065   19.0814   21.0310 H   0  0  0  0  0  0  0  0  0  0  0  0
   19.9894   19.1638   22.8369 C   0  0  0  0  0  0  0  0  0  0  0  0
   19.0492   18.7230   23.1889 H   0  0  0  0  0  0  0  0  0  0  0  0
   19.8463   20.2509   22.7820 H   0  0  0  0  0  0  0  0  0  0  0  0
   21.1258   18.8487   23.8384 C   0  0  0  0  0  0  0  0  0  0  0  0
   21.2051   17.7623   23.9783 H   0  0  0  0  0  0  0  0  0  0  0  0
   22.0809   19.1609   23.3938 H   0  0  0  0  0  0  0  0  0  0  0  0
   20.9919   19.5553   25.2169 C   0  0  0  0  0  0  0  0  0  0  0  0
   21.0414   20.6426   25.0732 H   0  0  0  0  0  0  0  0  0  0  0  0
   21.8799   19.2999   25.8100 H   0  0  0  0  0  0  0  0  0  0  0  0
   19.7453   19.2180   26.0742 C   0  0  2  0  0  0  0  0  0  0  0  0
   19.9308   19.6234   27.0737 H   0  0  0  0  0  0  0  0  0  0  0  0
   19.5292   17.7025   26.2274 C   0  0  0  0  0  0  0  0  0  0  0  0
   19.2450   17.2357   25.2767 H   0  0  0  0  0  0  0  0  0  0  0  0
   20.4420   17.2148   26.5912 H   0  0  0  0  0  0  0  0  0  0  0  0
   18.7316   17.4996   26.9525 H   0  0  0  0  0  0  0  0  0  0  0  0
   18.4955   19.9040   25.5954 N   0  3  0  0  0  0  0  0  0  0  0  0
   18.6150   20.9206   25.5653 H   0  0  0  0  0  0  0  0  0  0  0  0
   17.7023   19.7076   26.2127 H   0  0  0  0  0  0  0  0  0  0  0  0
   18.2398   19.5952   24.6552 H   0  0  0  0  0  0  0  0  0  0  0  0
  1  2  1  0  0  0  0
  1  3  1  0  0  0  0
  1  4  1  0  0  0  0
  1  5  1  0  0  0  0
  5  6  1  0  0  0  0
  5  7  1  0  0  0  0
  5  8  1  0  0  0  0
  8  9  1  0  0  0  0
  8 10  1  0  0  0  0
  8 11  1  0  0  0  0
 11 12  1  0  0  0  0
 11 13  1  0  0  0  0
 11 14  1  0  0  0  0
 14 15  1  0  0  0  0
 14 16  1  0  0  0  0
 14 17  1  0  0  0  0
 17 18  1  0  0  0  0
 17 19  1  0  0  0  0
 17 20  1  0  0  0  0
 20 21  1  0  0  0  0
 20 22  1  0  0  0  0
 22 23  1  0  0  0  0
 22 24  1  0  0  0  0
 22 25  1  0  0  0  0
 20 26  1  0  0  0  0
 26 27  1  0  0  0  0
 26 28  1  0  0  0  0
 26 29  1  0  0  0  0
M  END
> <VM2 Rank>
111

> <Conf_Id>
224

> <Probability>
0.01

> <Sum Probability>
99.65

> <Delta G>
3.986

> <G>
37.688

> <E>
-0.406

> <-TS>
38.094

> <U+W>
-24.551

> <U>
27.945

> <W>
-52.495

> <W(PB)>
-54.918

> <W(SA)>
2.422

> <Valence>
5.549

> <Coulomb>
21.392

> <VdW>
1.003

> <VdW6>
-10.751

> <VdW12>
11.754

> <Bond>
0.327

> <Angle>
2.388

> <Pdih>
2.834

> <Idih>
0.000

> <Tether>
0.000

$$$$
VeraChem MOL file


 29 28  0  0  0  0  0  0  0  0999 V2000     
   18.1051   19.0631   20.7677 C   0  0  0  0  0  0  0  0  0  0  0  0
   17.8000   20.0417   20.3747 H   0  0  0  0  0  0  0  0  0  0  0  0
   17.4687   18.3026   20.2971 H   0  0  0  0  0  0  0  0  0  0  0  0
   17.8957   19.0517   21.8428 H   0  0  0  0  0  0  0  0  0  0  0  0
   19.5953   18.7860   20.4606 C   0  0  0  0  0  0  0  0  0  0  0  0
   19.7214   18.7879   19.3688 H   0  0  0  0  0  0  0  0  0  0  0  0
   19.8733   17.7768   20.7950 H   0  0  0  0  0  0  0  0  0  0  0  0
   20.5560   19.8395   21.0699 C   0  0  0  0  0  0  0  0  0  0  0  0
   21.3894   19.9874   20.3693 H   0  0  0  0  0  0  0  0  0  0  0  0
   20.0544   20.8143   21.1422 H   0  0  0  0  0  0  0  0  0  0  0  0
   21.1649   19.4502   22.4418 C   0  0  0  0  0  0  0  0  0  0  0  0
   21.8754   20.2349   22.7364 H   0  0  0  0  0  0  0  0  0  0  0  0
   21.7545   18.5298   22.3310 H   0  0  0  0  0  0  0  0  0  0  0  0
   20.1252   19.2618   23.5705 C   0  0  0  0  0  0  0  0  0  0  0  0
   19.4728   20.1438   23.6116 H   0  0  0  0  0  0  0  0  0  0  0  0
   19.4937   18.3970   23.3343 H   0  0  0  0  0  0  0  0  0  0  0  0
   20.8078   19.0412   24.9454 C   0  0  0  0  0  0  0  0  0  0  0  0
   21.4768   19.8858   25.1564 H   0  0  0  0  0  0  0  0  0  0  0  0
   21.4507   18.1525   24.8925 H   0  0  0  0  0  0  0  0  0  0  0  0
   19.8345   18.8808   26.1371 C   0  0  2  0  0  0  0  0  0  0  0  0
   20.4423   18.7625   27.0395 H   0  0  0  0  0  0  0  0  0  0  0  0
   18.9542   17.6261   26.0017 C   0  0  0  0  0  0  0  0  0  0  0  0
   18.3767   17.4624   26.9198 H   0  0  0  0  0  0  0  0  0  0  0  0
   18.2438   17.7160   25.1714 H   0  0  0  0  0  0  0  0  0  0  0  0
   19.5701   16.7340   25.8329 H   0  0  0  0  0  0  0  0  0  0  0  0
   18.9930   20.1073   26.3593 N   0  3  0  0  0  0  0  0  0  0  0  0
   18.3994   20.0083   27.1878 H   0  0  0  0  0  0  0  0  0  0  0  0
   18.3792   20.2858   25.5607 H   0  0  0  0  0  0  0  0  0  0  0  0
   19.5729   20.9403   26.4957 H   0  0  0  0  0  0  0  0  0  0  0  0
  1  2  1  0  0  0  0
  1  3  1  0  0  0  0
  1  4  1  0  0  0  0
  1  5  1  0  0  0  0
  5  6  1  0  0  0  0
  5  7  1  0  0  0  0
  5  8  1  0  0  0  0
  8  9  1  0  0  0  0
  8 10  1  0  0  0  0
  8 11  1  0  0  0  0
 11 12  1  0  0  0  0
 11 13  1  0  0  0  0
 11 14  1  0  0  0  0
 14 15  1  0  0  0  0
 14 16  1  0  0  0  0
 14 17  1  0  0  0  0
 17 18  1  0  0  0  0
 17 19  1  0  0  0  0
 17 20  1  0  0  0  0
 20 21  1  0  0  0  0
 20 22  1  0  0  0  0
 22 23  1  0  0  0  0
 22 24  1  0  0  0  0
 22 25  1  0  0  0  0
 20 26  1  0  0  0  0
 26 27  1  0  0  0  0
 26 28  1  0  0  0  0
 26 29  1  0  0  0  0
M  END
> <VM2 Rank>
112

> <Conf_Id>
1275

> <Probability>
0.01

> <Sum Probability>
99.66

> <Delta G>
3.988

> <G>
37.690

> <E>
-0.198

> <-TS>
37.888

> <U+W>
-24.343

> <U>
28.036

> <W>
-52.378

> <W(PB)>
-54.816

> <W(SA)>
2.438

> <Valence>
6.660

> <Coulomb>
20.146

> <VdW>
1.229

> <VdW6>
-10.258

> <VdW12>
11.487

> <Bond>
0.309

> <Angle>
1.997

> <Pdih>
4.354

> <Idih>
0.000

> <Tether>
0.000

$$$$
VeraChem MOL file


 29 28  0  0  0  0  0  0  0  0999 V2000     
   18.0791   19.3422   20.7989 C   0  0  0  0  0  0  0  0  0  0  0  0
   17.8579   18.4017   20.2777 H   0  0  0  0  0  0  0  0  0  0  0  0
   17.8825   19.1902   21.8657 H   0  0  0  0  0  0  0  0  0  0  0  0
   17.3718   20.0986   20.4348 H   0  0  0  0  0  0  0  0  0  0  0  0
   19.5349   19.7908   20.5321 C   0  0  0  0  0  0  0  0  0  0  0  0
   19.7252   20.7682   20.9969 H   0  0  0  0  0  0  0  0  0  0  0  0
   19.6486   19.9438   19.4497 H   0  0  0  0  0  0  0  0  0  0  0  0
   20.5926   18.7573   20.9981 C   0  0  0  0  0  0  0  0  0  0  0  0
   20.1808   17.7403   20.9415 H   0  0  0  0  0  0  0  0  0  0  0  0
   21.4280   18.7779   20.2846 H   0  0  0  0  0  0  0  0  0  0  0  0
   21.1796   19.0169   22.4097 C   0  0  0  0  0  0  0  0  0  0  0  0
   21.6856   19.9921   22.4201 H   0  0  0  0  0  0  0  0  0  0  0  0
   21.9586   18.2660   22.6006 H   0  0  0  0  0  0  0  0  0  0  0  0
   20.1393   18.9652   23.5522 C   0  0  0  0  0  0  0  0  0  0  0  0
   19.4326   19.7956   23.4347 H   0  0  0  0  0  0  0  0  0  0  0  0
   19.5661   18.0323   23.4732 H   0  0  0  0  0  0  0  0  0  0  0  0
   20.8157   19.0567   24.9448 C   0  0  0  0  0  0  0  0  0  0  0  0
   21.4340   19.9630   24.9865 H   0  0  0  0  0  0  0  0  0  0  0  0
   21.5074   18.2129   25.0685 H   0  0  0  0  0  0  0  0  0  0  0  0
   19.8379   19.0761   26.1435 C   0  0  2  0  0  0  0  0  0  0  0  0
   20.4404   19.1640   27.0529 H   0  0  0  0  0  0  0  0  0  0  0  0
   19.0246   17.7742   26.2483 C   0  0  0  0  0  0  0  0  0  0  0  0
   18.3221   17.6663   25.4134 H   0  0  0  0  0  0  0  0  0  0  0  0
   19.6875   16.9000   26.2556 H   0  0  0  0  0  0  0  0  0  0  0  0
   18.4438   17.7589   27.1786 H   0  0  0  0  0  0  0  0  0  0  0  0
   18.9323   20.2766   26.1264 N   0  3  0  0  0  0  0  0  0  0  0  0
   18.3356   20.3066   26.9582 H   0  0  0  0  0  0  0  0  0  0  0  0
   18.3186   20.2670   25.3081 H   0  0  0  0  0  0  0  0  0  0  0  0
   19.4671   21.1496   26.1017 H   0  0  0  0  0  0  0  0  0  0  0  0
  1  2  1  0  0  0  0
  1  3  1  0  0  0  0
  1  4  1  0  0  0  0
  1  5  1  0  0  0  0
  5  6  1  0  0  0  0
  5  7  1  0  0  0  0
  5  8  1  0  0  0  0
  8  9  1  0  0  0  0
  8 10  1  0  0  0  0
  8 11  1  0  0  0  0
 11 12  1  0  0  0  0
 11 13  1  0  0  0  0
 11 14  1  0  0  0  0
 14 15  1  0  0  0  0
 14 16  1  0  0  0  0
 14 17  1  0  0  0  0
 17 18  1  0  0  0  0
 17 19  1  0  0  0  0
 17 20  1  0  0  0  0
 20 21  1  0  0  0  0
 20 22  1  0  0  0  0
 22 23  1  0  0  0  0
 22 24  1  0  0  0  0
 22 25  1  0  0  0  0
 20 26  1  0  0  0  0
 26 27  1  0  0  0  0
 26 28  1  0  0  0  0
 26 29  1  0  0  0  0
M  END
> <VM2 Rank>
113

> <Conf_Id>
602

> <Probability>
0.01

> <Sum Probability>
99.67

> <Delta G>
3.990

> <G>
37.692

> <E>
-0.197

> <-TS>
37.889

> <U+W>
-24.342

> <U>
28.181

> <W>
-52.523

> <W(PB)>
-54.971

> <W(SA)>
2.447

> <Valence>
6.657

> <Coulomb>
20.299

> <VdW>
1.225

> <VdW6>
-10.253

> <VdW12>
11.478

> <Bond>
0.308

> <Angle>
1.987

> <Pdih>
4.361

> <Idih>
0.000

> <Tether>
0.000

$$$$
VeraChem MOL file


 29 28  0  0  0  0  0  0  0  0999 V2000     
   19.1434   19.3253   19.1362 C   0  0  0  0  0  0  0  0  0  0  0  0
   18.5623   20.2565   19.1561 H   0  0  0  0  0  0  0  0  0  0  0  0
   20.1403   19.5527   18.7366 H   0  0  0  0  0  0  0  0  0  0  0  0
   18.6503   18.6351   18.4395 H   0  0  0  0  0  0  0  0  0  0  0  0
   19.2395   18.7015   20.5446 C   0  0  0  0  0  0  0  0  0  0  0  0
   19.7966   17.7558   20.4872 H   0  0  0  0  0  0  0  0  0  0  0  0
   18.2306   18.4540   20.9031 H   0  0  0  0  0  0  0  0  0  0  0  0
   19.9304   19.6536   21.5457 C   0  0  0  0  0  0  0  0  0  0  0  0
   20.9370   19.9000   21.1803 H   0  0  0  0  0  0  0  0  0  0  0  0
   19.3714   20.5981   21.5986 H   0  0  0  0  0  0  0  0  0  0  0  0
   20.0295   19.0314   22.9567 C   0  0  0  0  0  0  0  0  0  0  0  0
   20.5974   18.0922   22.9037 H   0  0  0  0  0  0  0  0  0  0  0  0
   19.0188   18.7831   23.3018 H   0  0  0  0  0  0  0  0  0  0  0  0
   20.7073   19.9926   23.9607 C   0  0  0  0  0  0  0  0  0  0  0  0
   21.6456   20.3546   23.5183 H   0  0  0  0  0  0  0  0  0  0  0  0
   20.0818   20.8851   24.0970 H   0  0  0  0  0  0  0  0  0  0  0  0
   21.0500   19.3653   25.3419 C   0  0  0  0  0  0  0  0  0  0  0  0
   21.5715   20.1335   25.9278 H   0  0  0  0  0  0  0  0  0  0  0  0
   21.7832   18.5590   25.2082 H   0  0  0  0  0  0  0  0  0  0  0  0
   19.8691   18.8537   26.2073 C   0  0  2  0  0  0  0  0  0  0  0  0
   20.2085   18.8824   27.2473 H   0  0  0  0  0  0  0  0  0  0  0  0
   19.5070   17.3865   25.9113 C   0  0  0  0  0  0  0  0  0  0  0  0
   20.3890   16.7416   26.0088 H   0  0  0  0  0  0  0  0  0  0  0  0
   18.7577   17.0273   26.6273 H   0  0  0  0  0  0  0  0  0  0  0  0
   19.0969   17.2499   24.9064 H   0  0  0  0  0  0  0  0  0  0  0  0
   18.6599   19.7463   26.1496 N   0  3  0  0  0  0  0  0  0  0  0  0
   18.2791   19.7886   25.2010 H   0  0  0  0  0  0  0  0  0  0  0  0
   18.8891   20.7032   26.4332 H   0  0  0  0  0  0  0  0  0  0  0  0
   17.9165   19.4118   26.7694 H   0  0  0  0  0  0  0  0  0  0  0  0
  1  2  1  0  0  0  0
  1  3  1  0  0  0  0
  1  4  1  0  0  0  0
  1  5  1  0  0  0  0
  5  6  1  0  0  0  0
  5  7  1  0  0  0  0
  5  8  1  0  0  0  0
  8  9  1  0  0  0  0
  8 10  1  0  0  0  0
  8 11  1  0  0  0  0
 11 12  1  0  0  0  0
 11 13  1  0  0  0  0
 11 14  1  0  0  0  0
 14 15  1  0  0  0  0
 14 16  1  0  0  0  0
 14 17  1  0  0  0  0
 17 18  1  0  0  0  0
 17 19  1  0  0  0  0
 17 20  1  0  0  0  0
 20 21  1  0  0  0  0
 20 22  1  0  0  0  0
 22 23  1  0  0  0  0
 22 24  1  0  0  0  0
 22 25  1  0  0  0  0
 20 26  1  0  0  0  0
 26 27  1  0  0  0  0
 26 28  1  0  0  0  0
 26 29  1  0  0  0  0
M  END
> <VM2 Rank>
114

> <Conf_Id>
1376

> <Probability>
0.01

> <Sum Probability>
99.69

> <Delta G>
4.004

> <G>
37.706

> <E>
-0.180

> <-TS>
37.886

> <U+W>
-24.325

> <U>
27.917

> <W>
-52.242

> <W(PB)>
-54.697

> <W(SA)>
2.455

> <Valence>
6.272

> <Coulomb>
20.554

> <VdW>
1.091

> <VdW6>
-9.903

> <VdW12>
10.994

> <Bond>
0.299

> <Angle>
2.362

> <Pdih>
3.611

> <Idih>
0.000

> <Tether>
0.000

$$$$
VeraChem MOL file


 29 28  0  0  0  0  0  0  0  0999 V2000     
   19.7408   19.5205   18.9928 C   0  0  0  0  0  0  0  0  0  0  0  0
   20.7662   19.3203   18.6555 H   0  0  0  0  0  0  0  0  0  0  0  0
   19.0532   19.0529   18.2762 H   0  0  0  0  0  0  0  0  0  0  0  0
   19.5756   20.6054   18.9600 H   0  0  0  0  0  0  0  0  0  0  0  0
   19.5057   18.9670   20.4142 C   0  0  0  0  0  0  0  0  0  0  0  0
   19.6499   17.8776   20.4089 H   0  0  0  0  0  0  0  0  0  0  0  0
   18.4608   19.1490   20.6976 H   0  0  0  0  0  0  0  0  0  0  0  0
   20.4617   19.6157   21.4432 C   0  0  0  0  0  0  0  0  0  0  0  0
   21.4958   19.4927   21.0925 H   0  0  0  0  0  0  0  0  0  0  0  0
   20.2792   20.6982   21.4889 H   0  0  0  0  0  0  0  0  0  0  0  0
   20.3527   19.0093   22.8639 C   0  0  0  0  0  0  0  0  0  0  0  0
   21.1675   19.4263   23.4698 H   0  0  0  0  0  0  0  0  0  0  0  0
   20.5214   17.9248   22.8145 H   0  0  0  0  0  0  0  0  0  0  0  0
   18.9992   19.3001   23.5592 C   0  0  0  0  0  0  0  0  0  0  0  0
   18.8506   20.3864   23.6299 H   0  0  0  0  0  0  0  0  0  0  0  0
   18.1774   18.9162   22.9416 H   0  0  0  0  0  0  0  0  0  0  0  0
   18.8672   18.6718   24.9699 C   0  0  0  0  0  0  0  0  0  0  0  0
   18.9282   17.5774   24.9010 H   0  0  0  0  0  0  0  0  0  0  0  0
   17.8535   18.8882   25.3323 H   0  0  0  0  0  0  0  0  0  0  0  0
   19.8983   19.2085   25.9922 C   0  0  2  0  0  0  0  0  0  0  0  0
   20.3108   20.1440   25.6020 H   0  0  0  0  0  0  0  0  0  0  0  0
   21.0520   18.2124   26.2090 C   0  0  0  0  0  0  0  0  0  0  0  0
   21.8060   18.6357   26.8840 H   0  0  0  0  0  0  0  0  0  0  0  0
   20.6876   17.2769   26.6518 H   0  0  0  0  0  0  0  0  0  0  0  0
   21.5525   17.9657   25.2661 H   0  0  0  0  0  0  0  0  0  0  0  0
   19.2583   19.5507   27.3096 N   0  3  0  0  0  0  0  0  0  0  0  0
   18.5171   20.2487   27.1979 H   0  0  0  0  0  0  0  0  0  0  0  0
   19.9416   19.9348   27.9686 H   0  0  0  0  0  0  0  0  0  0  0  0
   18.8411   18.7252   27.7483 H   0  0  0  0  0  0  0  0  0  0  0  0
  1  2  1  0  0  0  0
  1  3  1  0  0  0  0
  1  4  1  0  0  0  0
  1  5  1  0  0  0  0
  5  6  1  0  0  0  0
  5  7  1  0  0  0  0
  5  8  1  0  0  0  0
  8  9  1  0  0  0  0
  8 10  1  0  0  0  0
  8 11  1  0  0  0  0
 11 12  1  0  0  0  0
 11 13  1  0  0  0  0
 11 14  1  0  0  0  0
 14 15  1  0  0  0  0
 14 16  1  0  0  0  0
 14 17  1  0  0  0  0
 17 18  1  0  0  0  0
 17 19  1  0  0  0  0
 17 20  1  0  0  0  0
 20 21  1  0  0  0  0
 20 22  1  0  0  0  0
 22 23  1  0  0  0  0
 22 24  1  0  0  0  0
 22 25  1  0  0  0  0
 20 26  1  0  0  0  0
 26 27  1  0  0  0  0
 26 28  1  0  0  0  0
 26 29  1  0  0  0  0
M  END
> <VM2 Rank>
115

> <Conf_Id>
688

> <Probability>
0.01

> <Sum Probability>
99.70

> <Delta G>
4.023

> <G>
37.725

> <E>
0.177

> <-TS>
37.548

> <U+W>
-23.968

> <U>
28.095

> <W>
-52.063

> <W(PB)>
-54.558

> <W(SA)>
2.495

> <Valence>
6.946

> <Coulomb>
19.830

> <VdW>
1.319

> <VdW6>
-9.594

> <VdW12>
10.913

> <Bond>
0.269

> <Angle>
1.645

> <Pdih>
5.031

> <Idih>
0.000

> <Tether>
0.000

$$$$
VeraChem MOL file


 29 28  0  0  0  0  0  0  0  0999 V2000     
   20.2969   18.3359   19.9082 C   0  0  0  0  0  0  0  0  0  0  0  0
   20.0786   18.9941   19.0572 H   0  0  0  0  0  0  0  0  0  0  0  0
   21.2947   18.5869   20.2877 H   0  0  0  0  0  0  0  0  0  0  0  0
   20.3369   17.3054   19.5322 H   0  0  0  0  0  0  0  0  0  0  0  0
   19.2157   18.4690   21.0051 C   0  0  0  0  0  0  0  0  0  0  0  0
   19.4575   17.8008   21.8400 H   0  0  0  0  0  0  0  0  0  0  0  0
   18.2605   18.1107   20.5965 H   0  0  0  0  0  0  0  0  0  0  0  0
   19.0225   19.9258   21.5004 C   0  0  0  0  0  0  0  0  0  0  0  0
   18.8552   20.5653   20.6228 H   0  0  0  0  0  0  0  0  0  0  0  0
   18.0991   19.9932   22.0918 H   0  0  0  0  0  0  0  0  0  0  0  0
   20.2063   20.5063   22.3215 C   0  0  0  0  0  0  0  0  0  0  0  0
   20.2789   21.5796   22.0982 H   0  0  0  0  0  0  0  0  0  0  0  0
   21.1603   20.0749   21.9944 H   0  0  0  0  0  0  0  0  0  0  0  0
   20.0614   20.3614   23.8583 C   0  0  0  0  0  0  0  0  0  0  0  0
   20.9081   20.8763   24.3332 H   0  0  0  0  0  0  0  0  0  0  0  0
   19.1565   20.8913   24.1845 H   0  0  0  0  0  0  0  0  0  0  0  0
   20.0219   18.8958   24.3566 C   0  0  0  0  0  0  0  0  0  0  0  0
   20.8563   18.3431   23.9050 H   0  0  0  0  0  0  0  0  0  0  0  0
   19.0962   18.4123   24.0205 H   0  0  0  0  0  0  0  0  0  0  0  0
   20.1225   18.7828   25.8929 C   0  0  2  0  0  0  0  0  0  0  0  0
   21.0406   19.2842   26.2143 H   0  0  0  0  0  0  0  0  0  0  0  0
   20.2045   17.3075   26.3159 C   0  0  0  0  0  0  0  0  0  0  0  0
   20.3137   17.2211   27.4040 H   0  0  0  0  0  0  0  0  0  0  0  0
   19.3025   16.7583   26.0181 H   0  0  0  0  0  0  0  0  0  0  0  0
   21.0709   16.8173   25.8545 H   0  0  0  0  0  0  0  0  0  0  0  0
   18.9844   19.4715   26.5952 N   0  3  0  0  0  0  0  0  0  0  0  0
   19.0789   19.4069   27.6128 H   0  0  0  0  0  0  0  0  0  0  0  0
   18.0841   19.0550   26.3434 H   0  0  0  0  0  0  0  0  0  0  0  0
   18.9436   20.4652   26.3534 H   0  0  0  0  0  0  0  0  0  0  0  0
  1  2  1  0  0  0  0
  1  3  1  0  0  0  0
  1  4  1  0  0  0  0
  1  5  1  0  0  0  0
  5  6  1  0  0  0  0
  5  7  1  0  0  0  0
  5  8  1  0  0  0  0
  8  9  1  0  0  0  0
  8 10  1  0  0  0  0
  8 11  1  0  0  0  0
 11 12  1  0  0  0  0
 11 13  1  0  0  0  0
 11 14  1  0  0  0  0
 14 15  1  0  0  0  0
 14 16  1  0  0  0  0
 14 17  1  0  0  0  0
 17 18  1  0  0  0  0
 17 19  1  0  0  0  0
 17 20  1  0  0  0  0
 20 21  1  0  0  0  0
 20 22  1  0  0  0  0
 22 23  1  0  0  0  0
 22 24  1  0  0  0  0
 22 25  1  0  0  0  0
 20 26  1  0  0  0  0
 26 27  1  0  0  0  0
 26 28  1  0  0  0  0
 26 29  1  0  0  0  0
M  END
> <VM2 Rank>
116

> <Conf_Id>
1197

> <Probability>
0.01

> <Sum Probability>
99.71

> <Delta G>
4.025

> <G>
37.727

> <E>
-0.068

> <-TS>
37.794

> <U+W>
-24.212

> <U>
28.201

> <W>
-52.414

> <W(PB)>
-54.887

> <W(SA)>
2.474

> <Valence>
6.863

> <Coulomb>
20.157

> <VdW>
1.182

> <VdW6>
-10.208

> <VdW12>
11.389

> <Bond>
0.322

> <Angle>
1.966

> <Pdih>
4.575

> <Idih>
0.000

> <Tether>
0.000

$$$$
VeraChem MOL file


 29 28  0  0  0  0  0  0  0  0999 V2000     
   20.3148   17.8439   20.6756 C   0  0  0  0  0  0  0  0  0  0  0  0
   19.7620   17.3757   21.4987 H   0  0  0  0  0  0  0  0  0  0  0  0
   19.7053   17.7621   19.7664 H   0  0  0  0  0  0  0  0  0  0  0  0
   21.2320   17.2620   20.5179 H   0  0  0  0  0  0  0  0  0  0  0  0
   20.6559   19.3205   20.9806 C   0  0  0  0  0  0  0  0  0  0  0  0
   21.2664   19.7146   20.1562 H   0  0  0  0  0  0  0  0  0  0  0  0
   21.2869   19.3900   21.8756 H   0  0  0  0  0  0  0  0  0  0  0  0
   19.4042   20.2184   21.1355 C   0  0  0  0  0  0  0  0  0  0  0  0
   19.7299   21.2617   21.2477 H   0  0  0  0  0  0  0  0  0  0  0  0
   18.8325   20.1856   20.1979 H   0  0  0  0  0  0  0  0  0  0  0  0
   18.4508   19.8624   22.3082 C   0  0  0  0  0  0  0  0  0  0  0  0
   18.0468   18.8486   22.1881 H   0  0  0  0  0  0  0  0  0  0  0  0
   17.5817   20.5303   22.2317 H   0  0  0  0  0  0  0  0  0  0  0  0
   19.0634   20.0429   23.7221 C   0  0  0  0  0  0  0  0  0  0  0  0
   19.8355   20.8243   23.7008 H   0  0  0  0  0  0  0  0  0  0  0  0
   18.2726   20.4141   24.3873 H   0  0  0  0  0  0  0  0  0  0  0  0
   19.6391   18.7338   24.3216 C   0  0  0  0  0  0  0  0  0  0  0  0
   20.3856   18.3120   23.6405 H   0  0  0  0  0  0  0  0  0  0  0  0
   18.8407   17.9850   24.4080 H   0  0  0  0  0  0  0  0  0  0  0  0
   20.3011   18.9451   25.7004 C   0  0  2  0  0  0  0  0  0  0  0  0
   21.0719   19.7149   25.5961 H   0  0  0  0  0  0  0  0  0  0  0  0
   20.9761   17.6477   26.1732 C   0  0  0  0  0  0  0  0  0  0  0  0
   21.4794   17.8003   27.1359 H   0  0  0  0  0  0  0  0  0  0  0  0
   20.2431   16.8403   26.2948 H   0  0  0  0  0  0  0  0  0  0  0  0
   21.7330   17.3162   25.4513 H   0  0  0  0  0  0  0  0  0  0  0  0
   19.3304   19.4415   26.7368 N   0  3  0  0  0  0  0  0  0  0  0  0
   19.7913   19.5938   27.6385 H   0  0  0  0  0  0  0  0  0  0  0  0
   18.5723   18.7710   26.8891 H   0  0  0  0  0  0  0  0  0  0  0  0
   18.9057   20.3294   26.4559 H   0  0  0  0  0  0  0  0  0  0  0  0
  1  2  1  0  0  0  0
  1  3  1  0  0  0  0
  1  4  1  0  0  0  0
  1  5  1  0  0  0  0
  5  6  1  0  0  0  0
  5  7  1  0  0  0  0
  5  8  1  0  0  0  0
  8  9  1  0  0  0  0
  8 10  1  0  0  0  0
  8 11  1  0  0  0  0
 11 12  1  0  0  0  0
 11 13  1  0  0  0  0
 11 14  1  0  0  0  0
 14 15  1  0  0  0  0
 14 16  1  0  0  0  0
 14 17  1  0  0  0  0
 17 18  1  0  0  0  0
 17 19  1  0  0  0  0
 17 20  1  0  0  0  0
 20 21  1  0  0  0  0
 20 22  1  0  0  0  0
 22 23  1  0  0  0  0
 22 24  1  0  0  0  0
 22 25  1  0  0  0  0
 20 26  1  0  0  0  0
 26 27  1  0  0  0  0
 26 28  1  0  0  0  0
 26 29  1  0  0  0  0
M  END
> <VM2 Rank>
117

> <Conf_Id>
678

> <Probability>
0.01

> <Sum Probability>
99.72

> <Delta G>
4.049

> <G>
37.751

> <E>
-0.463

> <-TS>
38.214

> <U+W>
-24.608

> <U>
27.913

> <W>
-52.521

> <W(PB)>
-54.944

> <W(SA)>
2.423

> <Valence>
6.822

> <Coulomb>
20.150

> <VdW>
0.941

> <VdW6>
-10.666

> <VdW12>
11.608

> <Bond>
0.323

> <Angle>
2.170

> <Pdih>
4.329

> <Idih>
0.000

> <Tether>
0.000

$$$$
VeraChem MOL file


 29 28  0  0  0  0  0  0  0  0999 V2000     
   20.1829   20.5554   19.8544 C   0  0  0  0  0  0  0  0  0  0  0  0
   21.1557   20.8732   19.4575 H   0  0  0  0  0  0  0  0  0  0  0  0
   19.5564   20.2498   19.0062 H   0  0  0  0  0  0  0  0  0  0  0  0
   19.7126   21.4254   20.3310 H   0  0  0  0  0  0  0  0  0  0  0  0
   20.3565   19.3987   20.8611 C   0  0  0  0  0  0  0  0  0  0  0  0
   21.0210   19.7234   21.6707 H   0  0  0  0  0  0  0  0  0  0  0  0
   20.8599   18.5582   20.3631 H   0  0  0  0  0  0  0  0  0  0  0  0
   18.9955   18.9251   21.4257 C   0  0  0  0  0  0  0  0  0  0  0  0
   18.4482   19.7694   21.8670 H   0  0  0  0  0  0  0  0  0  0  0  0
   18.3816   18.5734   20.5850 H   0  0  0  0  0  0  0  0  0  0  0  0
   19.1228   17.7733   22.4565 C   0  0  0  0  0  0  0  0  0  0  0  0
   20.0249   17.1792   22.2557 H   0  0  0  0  0  0  0  0  0  0  0  0
   18.2782   17.0865   22.3072 H   0  0  0  0  0  0  0  0  0  0  0  0
   19.1004   18.2238   23.9401 C   0  0  0  0  0  0  0  0  0  0  0  0
   18.1435   18.7206   24.1481 H   0  0  0  0  0  0  0  0  0  0  0  0
   19.1201   17.3206   24.5631 H   0  0  0  0  0  0  0  0  0  0  0  0
   20.2745   19.1578   24.3373 C   0  0  0  0  0  0  0  0  0  0  0  0
   20.1961   20.0955   23.7739 H   0  0  0  0  0  0  0  0  0  0  0  0
   21.2255   18.6966   24.0400 H   0  0  0  0  0  0  0  0  0  0  0  0
   20.3423   19.5161   25.8408 C   0  0  2  0  0  0  0  0  0  0  0  0
   21.1605   20.2319   25.9667 H   0  0  0  0  0  0  0  0  0  0  0  0
   20.6611   18.2917   26.7167 C   0  0  0  0  0  0  0  0  0  0  0  0
   19.8357   17.5703   26.7247 H   0  0  0  0  0  0  0  0  0  0  0  0
   21.5626   17.7796   26.3582 H   0  0  0  0  0  0  0  0  0  0  0  0
   20.8446   18.6002   27.7532 H   0  0  0  0  0  0  0  0  0  0  0  0
   19.1000   20.2141   26.3214 N   0  3  0  0  0  0  0  0  0  0  0  0
   18.9077   21.0577   25.7736 H   0  0  0  0  0  0  0  0  0  0  0  0
   19.1856   20.4978   27.3016 H   0  0  0  0  0  0  0  0  0  0  0  0
   18.2813   19.6051   26.2481 H   0  0  0  0  0  0  0  0  0  0  0  0
  1  2  1  0  0  0  0
  1  3  1  0  0  0  0
  1  4  1  0  0  0  0
  1  5  1  0  0  0  0
  5  6  1  0  0  0  0
  5  7  1  0  0  0  0
  5  8  1  0  0  0  0
  8  9  1  0  0  0  0
  8 10  1  0  0  0  0
  8 11  1  0  0  0  0
 11 12  1  0  0  0  0
 11 13  1  0  0  0  0
 11 14  1  0  0  0  0
 14 15  1  0  0  0  0
 14 16  1  0  0  0  0
 14 17  1  0  0  0  0
 17 18  1  0  0  0  0
 17 19  1  0  0  0  0
 17 20  1  0  0  0  0
 20 21  1  0  0  0  0
 20 22  1  0  0  0  0
 22 23  1  0  0  0  0
 22 24  1  0  0  0  0
 22 25  1  0  0  0  0
 20 26  1  0  0  0  0
 26 27  1  0  0  0  0
 26 28  1  0  0  0  0
 26 29  1  0  0  0  0
M  END
> <VM2 Rank>
118

> <Conf_Id>
162

> <Probability>
0.01

> <Sum Probability>
99.74

> <Delta G>
4.055

> <G>
37.757

> <E>
-0.140

> <-TS>
37.898

> <U+W>
-24.285

> <U>
28.217

> <W>
-52.502

> <W(PB)>
-54.946

> <W(SA)>
2.444

> <Valence>
6.821

> <Coulomb>
20.147

> <VdW>
1.249

> <VdW6>
-10.236

> <VdW12>
11.486

> <Bond>
0.316

> <Angle>
1.990

> <Pdih>
4.515

> <Idih>
0.000

> <Tether>
0.000

$$$$
VeraChem MOL file


 29 28  0  0  0  0  0  0  0  0999 V2000     
   18.4301   19.5506   20.2499 C   0  0  0  0  0  0  0  0  0  0  0  0
   17.7495   20.3268   19.8767 H   0  0  0  0  0  0  0  0  0  0  0  0
   18.5925   18.8315   19.4366 H   0  0  0  0  0  0  0  0  0  0  0  0
   17.9201   19.0271   21.0657 H   0  0  0  0  0  0  0  0  0  0  0  0
   19.7678   20.1787   20.7056 C   0  0  0  0  0  0  0  0  0  0  0  0
   19.5886   20.9457   21.4717 H   0  0  0  0  0  0  0  0  0  0  0  0
   20.2029   20.7069   19.8457 H   0  0  0  0  0  0  0  0  0  0  0  0
   20.7965   19.1368   21.2155 C   0  0  0  0  0  0  0  0  0  0  0  0
   20.6492   18.1751   20.7051 H   0  0  0  0  0  0  0  0  0  0  0  0
   21.7995   19.4762   20.9221 H   0  0  0  0  0  0  0  0  0  0  0  0
   20.8066   18.9301   22.7520 C   0  0  0  0  0  0  0  0  0  0  0  0
   21.0537   19.8826   23.2394 H   0  0  0  0  0  0  0  0  0  0  0  0
   21.6233   18.2380   22.9995 H   0  0  0  0  0  0  0  0  0  0  0  0
   19.4828   18.3705   23.3272 C   0  0  0  0  0  0  0  0  0  0  0  0
   18.6829   19.1127   23.2149 H   0  0  0  0  0  0  0  0  0  0  0  0
   19.1774   17.4927   22.7413 H   0  0  0  0  0  0  0  0  0  0  0  0
   19.5961   17.9548   24.8161 C   0  0  0  0  0  0  0  0  0  0  0  0
   20.3232   17.1361   24.8999 H   0  0  0  0  0  0  0  0  0  0  0  0
   18.6332   17.5444   25.1482 H   0  0  0  0  0  0  0  0  0  0  0  0
   20.0177   19.1014   25.7621 C   0  0  2  0  0  0  0  0  0  0  0  0
   20.9844   19.4877   25.4258 H   0  0  0  0  0  0  0  0  0  0  0  0
   20.1841   18.5772   27.1972 C   0  0  0  0  0  0  0  0  0  0  0  0
   20.5211   19.3784   27.8665 H   0  0  0  0  0  0  0  0  0  0  0  0
   19.2383   18.1809   27.5874 H   0  0  0  0  0  0  0  0  0  0  0  0
   20.9320   17.7754   27.2347 H   0  0  0  0  0  0  0  0  0  0  0  0
   19.0544   20.2559   25.7283 N   0  3  0  0  0  0  0  0  0  0  0  0
   18.9635   20.6352   24.7819 H   0  0  0  0  0  0  0  0  0  0  0  0
   19.3620   21.0186   26.3385 H   0  0  0  0  0  0  0  0  0  0  0  0
   18.1215   19.9715   26.0386 H   0  0  0  0  0  0  0  0  0  0  0  0
  1  2  1  0  0  0  0
  1  3  1  0  0  0  0
  1  4  1  0  0  0  0
  1  5  1  0  0  0  0
  5  6  1  0  0  0  0
  5  7  1  0  0  0  0
  5  8  1  0  0  0  0
  8  9  1  0  0  0  0
  8 10  1  0  0  0  0
  8 11  1  0  0  0  0
 11 12  1  0  0  0  0
 11 13  1  0  0  0  0
 11 14  1  0  0  0  0
 14 15  1  0  0  0  0
 14 16  1  0  0  0  0
 14 17  1  0  0  0  0
 17 18  1  0  0  0  0
 17 19  1  0  0  0  0
 17 20  1  0  0  0  0
 20 21  1  0  0  0  0
 20 22  1  0  0  0  0
 22 23  1  0  0  0  0
 22 24  1  0  0  0  0
 22 25  1  0  0  0  0
 20 26  1  0  0  0  0
 26 27  1  0  0  0  0
 26 28  1  0  0  0  0
 26 29  1  0  0  0  0
M  END
> <VM2 Rank>
119

> <Conf_Id>
973

> <Probability>
0.01

> <Sum Probability>
99.75

> <Delta G>
4.095

> <G>
37.797

> <E>
-0.123

> <-TS>
37.920

> <U+W>
-24.268

> <U>
28.133

> <W>
-52.401

> <W(PB)>
-54.855

> <W(SA)>
2.454

> <Valence>
6.427

> <Coulomb>
20.720

> <VdW>
0.986

> <VdW6>
-10.459

> <VdW12>
11.445

> <Bond>
0.299

> <Angle>
1.839

> <Pdih>
4.289

> <Idih>
0.000

> <Tether>
0.000

$$$$
VeraChem MOL file


 29 28  0  0  0  0  0  0  0  0999 V2000     
   20.2674   20.7626   20.6476 C   0  0  0  0  0  0  0  0  0  0  0  0
   19.3628   21.3434   20.4259 H   0  0  0  0  0  0  0  0  0  0  0  0
   20.5630   20.9674   21.6841 H   0  0  0  0  0  0  0  0  0  0  0  0
   21.0710   21.1302   19.9964 H   0  0  0  0  0  0  0  0  0  0  0  0
   20.0296   19.2535   20.4142 C   0  0  0  0  0  0  0  0  0  0  0  0
   20.9398   18.6922   20.6645 H   0  0  0  0  0  0  0  0  0  0  0  0
   19.8572   19.0845   19.3421 H   0  0  0  0  0  0  0  0  0  0  0  0
   18.8197   18.6908   21.2028 C   0  0  0  0  0  0  0  0  0  0  0  0
   17.9050   19.1908   20.8557 H   0  0  0  0  0  0  0  0  0  0  0  0
   18.6956   17.6288   20.9500 H   0  0  0  0  0  0  0  0  0  0  0  0
   18.9131   18.8350   22.7435 C   0  0  0  0  0  0  0  0  0  0  0  0
   18.0017   18.4099   23.1859 H   0  0  0  0  0  0  0  0  0  0  0  0
   18.9211   19.9002   23.0009 H   0  0  0  0  0  0  0  0  0  0  0  0
   20.1520   18.1289   23.3487 C   0  0  0  0  0  0  0  0  0  0  0  0
   20.2321   17.1244   22.9108 H   0  0  0  0  0  0  0  0  0  0  0  0
   21.0652   18.6642   23.0560 H   0  0  0  0  0  0  0  0  0  0  0  0
   20.1249   17.9768   24.8923 C   0  0  0  0  0  0  0  0  0  0  0  0
   20.9837   17.3508   25.1690 H   0  0  0  0  0  0  0  0  0  0  0  0
   19.2335   17.4161   25.2031 H   0  0  0  0  0  0  0  0  0  0  0  0
   20.2135   19.3074   25.6766 C   0  0  2  0  0  0  0  0  0  0  0  0
   20.9369   19.9568   25.1742 H   0  0  0  0  0  0  0  0  0  0  0  0
   20.7100   19.0516   27.1092 C   0  0  0  0  0  0  0  0  0  0  0  0
   20.7918   19.9932   27.6661 H   0  0  0  0  0  0  0  0  0  0  0  0
   20.0249   18.3900   27.6542 H   0  0  0  0  0  0  0  0  0  0  0  0
   21.7028   18.5846   27.1014 H   0  0  0  0  0  0  0  0  0  0  0  0
   18.9059   20.0494   25.7192 N   0  3  0  0  0  0  0  0  0  0  0  0
   18.1881   19.5081   26.2083 H   0  0  0  0  0  0  0  0  0  0  0  0
   18.5568   20.2452   24.7784 H   0  0  0  0  0  0  0  0  0  0  0  0
   19.0001   20.9447   26.2074 H   0  0  0  0  0  0  0  0  0  0  0  0
  1  2  1  0  0  0  0
  1  3  1  0  0  0  0
  1  4  1  0  0  0  0
  1  5  1  0  0  0  0
  5  6  1  0  0  0  0
  5  7  1  0  0  0  0
  5  8  1  0  0  0  0
  8  9  1  0  0  0  0
  8 10  1  0  0  0  0
  8 11  1  0  0  0  0
 11 12  1  0  0  0  0
 11 13  1  0  0  0  0
 11 14  1  0  0  0  0
 14 15  1  0  0  0  0
 14 16  1  0  0  0  0
 14 17  1  0  0  0  0
 17 18  1  0  0  0  0
 17 19  1  0  0  0  0
 17 20  1  0  0  0  0
 20 21  1  0  0  0  0
 20 22  1  0  0  0  0
 22 23  1  0  0  0  0
 22 24  1  0  0  0  0
 22 25  1  0  0  0  0
 20 26  1  0  0  0  0
 26 27  1  0  0  0  0
 26 28  1  0  0  0  0
 26 29  1  0  0  0  0
M  END
> <VM2 Rank>
120

> <Conf_Id>
1014

> <Probability>
0.01

> <Sum Probability>
99.76

> <Delta G>
4.111

> <G>
37.813

> <E>
0.008

> <-TS>
37.804

> <U+W>
-24.136

> <U>
28.192

> <W>
-52.328

> <W(PB)>
-54.784

> <W(SA)>
2.456

> <Valence>
5.839

> <Coulomb>
21.296

> <VdW>
1.058

> <VdW6>
-10.711

> <VdW12>
11.769

> <Bond>
0.323

> <Angle>
2.126

> <Pdih>
3.390

> <Idih>
0.000

> <Tether>
0.000

$$$$
VeraChem MOL file


 29 28  0  0  0  0  0  0  0  0999 V2000     
   19.3859   18.1124   20.1044 C   0  0  0  0  0  0  0  0  0  0  0  0
   19.7741   17.2244   19.5890 H   0  0  0  0  0  0  0  0  0  0  0  0
   18.7476   17.7670   20.9249 H   0  0  0  0  0  0  0  0  0  0  0  0
   18.7546   18.6606   19.3931 H   0  0  0  0  0  0  0  0  0  0  0  0
   20.5501   18.9987   20.6051 C   0  0  0  0  0  0  0  0  0  0  0  0
   21.1586   19.2807   19.7344 H   0  0  0  0  0  0  0  0  0  0  0  0
   21.2140   18.4212   21.2633 H   0  0  0  0  0  0  0  0  0  0  0  0
   20.0779   20.2928   21.3166 C   0  0  0  0  0  0  0  0  0  0  0  0
   20.7899   21.0942   21.0750 H   0  0  0  0  0  0  0  0  0  0  0  0
   19.1128   20.6218   20.9076 H   0  0  0  0  0  0  0  0  0  0  0  0
   19.9972   20.1924   22.8615 C   0  0  0  0  0  0  0  0  0  0  0  0
   19.7332   21.1829   23.2571 H   0  0  0  0  0  0  0  0  0  0  0  0
   20.9948   19.9593   23.2572 H   0  0  0  0  0  0  0  0  0  0  0  0
   18.9714   19.1547   23.3786 C   0  0  0  0  0  0  0  0  0  0  0  0
   18.0093   19.3154   22.8733 H   0  0  0  0  0  0  0  0  0  0  0  0
   19.2959   18.1418   23.1107 H   0  0  0  0  0  0  0  0  0  0  0  0
   18.7440   19.2373   24.9099 C   0  0  0  0  0  0  0  0  0  0  0  0
   18.0050   18.4800   25.2032 H   0  0  0  0  0  0  0  0  0  0  0  0
   18.2907   20.2103   25.1410 H   0  0  0  0  0  0  0  0  0  0  0  0
   20.0189   19.0677   25.7696 C   0  0  2  0  0  0  0  0  0  0  0  0
   20.7439   19.8284   25.4655 H   0  0  0  0  0  0  0  0  0  0  0  0
   20.6612   17.6813   25.5850 C   0  0  0  0  0  0  0  0  0  0  0  0
   19.9511   16.8801   25.8247 H   0  0  0  0  0  0  0  0  0  0  0  0
   21.0074   17.5371   24.5549 H   0  0  0  0  0  0  0  0  0  0  0  0
   21.5343   17.5695   26.2395 H   0  0  0  0  0  0  0  0  0  0  0  0
   19.7293   19.3186   27.2233 N   0  3  0  0  0  0  0  0  0  0  0  0
   19.3400   20.2537   27.3743 H   0  0  0  0  0  0  0  0  0  0  0  0
   20.5780   19.2465   27.7917 H   0  0  0  0  0  0  0  0  0  0  0  0
   19.0561   18.6418   27.5926 H   0  0  0  0  0  0  0  0  0  0  0  0
  1  2  1  0  0  0  0
  1  3  1  0  0  0  0
  1  4  1  0  0  0  0
  1  5  1  0  0  0  0
  5  6  1  0  0  0  0
  5  7  1  0  0  0  0
  5  8  1  0  0  0  0
  8  9  1  0  0  0  0
  8 10  1  0  0  0  0
  8 11  1  0  0  0  0
 11 12  1  0  0  0  0
 11 13  1  0  0  0  0
 11 14  1  0  0  0  0
 14 15  1  0  0  0  0
 14 16  1  0  0  0  0
 14 17  1  0  0  0  0
 17 18  1  0  0  0  0
 17 19  1  0  0  0  0
 17 20  1  0  0  0  0
 20 21  1  0  0  0  0
 20 22  1  0  0  0  0
 22 23  1  0  0  0  0
 22 24  1  0  0  0  0
 22 25  1  0  0  0  0
 20 26  1  0  0  0  0
 26 27  1  0  0  0  0
 26 28  1  0  0  0  0
 26 29  1  0  0  0  0
M  END
> <VM2 Rank>
121

> <Conf_Id>
691

> <Probability>
0.01

> <Sum Probability>
99.77

> <Delta G>
4.137

> <G>
37.838

> <E>
-0.183

> <-TS>
38.022

> <U+W>
-24.328

> <U>
28.040

> <W>
-52.368

> <W(PB)>
-54.808

> <W(SA)>
2.440

> <Valence>
6.918

> <Coulomb>
20.071

> <VdW>
1.051

> <VdW6>
-10.718

> <VdW12>
11.770

> <Bond>
0.310

> <Angle>
2.143

> <Pdih>
4.465

> <Idih>
0.000

> <Tether>
0.000

$$$$
VeraChem MOL file


 29 28  0  0  0  0  0  0  0  0999 V2000     
   18.9241   18.4551   19.9344 C   0  0  0  0  0  0  0  0  0  0  0  0
   19.1667   19.0769   19.0629 H   0  0  0  0  0  0  0  0  0  0  0  0
   18.6829   17.4482   19.5699 H   0  0  0  0  0  0  0  0  0  0  0  0
   18.0200   18.8617   20.4032 H   0  0  0  0  0  0  0  0  0  0  0  0
   20.1096   18.4014   20.9253 C   0  0  0  0  0  0  0  0  0  0  0  0
   20.9557   17.9059   20.4291 H   0  0  0  0  0  0  0  0  0  0  0  0
   19.8435   17.7671   21.7795 H   0  0  0  0  0  0  0  0  0  0  0  0
   20.5695   19.8034   21.4020 C   0  0  0  0  0  0  0  0  0  0  0  0
   21.5518   19.7233   21.8874 H   0  0  0  0  0  0  0  0  0  0  0  0
   20.7321   20.4312   20.5151 H   0  0  0  0  0  0  0  0  0  0  0  0
   19.5782   20.5275   22.3534 C   0  0  0  0  0  0  0  0  0  0  0  0
   18.5458   20.2132   22.1565 H   0  0  0  0  0  0  0  0  0  0  0  0
   19.6073   21.6011   22.1211 H   0  0  0  0  0  0  0  0  0  0  0  0
   19.8955   20.3692   23.8628 C   0  0  0  0  0  0  0  0  0  0  0  0
   20.8896   20.7878   24.0725 H   0  0  0  0  0  0  0  0  0  0  0  0
   19.1797   20.9854   24.4223 H   0  0  0  0  0  0  0  0  0  0  0  0
   19.8349   18.9081   24.3740 C   0  0  0  0  0  0  0  0  0  0  0  0
   20.6096   18.3212   23.8656 H   0  0  0  0  0  0  0  0  0  0  0  0
   18.8680   18.4599   24.1097 H   0  0  0  0  0  0  0  0  0  0  0  0
   20.0634   18.7910   25.8967 C   0  0  2  0  0  0  0  0  0  0  0  0
   21.0108   19.2816   26.1404 H   0  0  0  0  0  0  0  0  0  0  0  0
   20.1648   17.3137   26.3088 C   0  0  0  0  0  0  0  0  0  0  0  0
   20.3613   17.2231   27.3843 H   0  0  0  0  0  0  0  0  0  0  0  0
   19.2360   16.7744   26.0843 H   0  0  0  0  0  0  0  0  0  0  0  0
   20.9858   16.8159   25.7779 H   0  0  0  0  0  0  0  0  0  0  0  0
   18.9959   19.4866   26.6965 N   0  3  0  0  0  0  0  0  0  0  0  0
   18.9461   20.4829   26.4675 H   0  0  0  0  0  0  0  0  0  0  0  0
   19.1739   19.4122   27.7022 H   0  0  0  0  0  0  0  0  0  0  0  0
   18.0729   19.0822   26.5176 H   0  0  0  0  0  0  0  0  0  0  0  0
  1  2  1  0  0  0  0
  1  3  1  0  0  0  0
  1  4  1  0  0  0  0
  1  5  1  0  0  0  0
  5  6  1  0  0  0  0
  5  7  1  0  0  0  0
  5  8  1  0  0  0  0
  8  9  1  0  0  0  0
  8 10  1  0  0  0  0
  8 11  1  0  0  0  0
 11 12  1  0  0  0  0
 11 13  1  0  0  0  0
 11 14  1  0  0  0  0
 14 15  1  0  0  0  0
 14 16  1  0  0  0  0
 14 17  1  0  0  0  0
 17 18  1  0  0  0  0
 17 19  1  0  0  0  0
 17 20  1  0  0  0  0
 20 21  1  0  0  0  0
 20 22  1  0  0  0  0
 22 23  1  0  0  0  0
 22 24  1  0  0  0  0
 22 25  1  0  0  0  0
 20 26  1  0  0  0  0
 26 27  1  0  0  0  0
 26 28  1  0  0  0  0
 26 29  1  0  0  0  0
M  END
> <VM2 Rank>
122

> <Conf_Id>
317

> <Probability>
0.01

> <Sum Probability>
99.78

> <Delta G>
4.149

> <G>
37.851

> <E>
0.036

> <-TS>
37.815

> <U+W>
-24.109

> <U>
28.258

> <W>
-52.367

> <W(PB)>
-54.799

> <W(SA)>
2.432

> <Valence>
6.944

> <Coulomb>
20.034

> <VdW>
1.280

> <VdW6>
-10.156

> <VdW12>
11.436

> <Bond>
0.326

> <Angle>
1.949

> <Pdih>
4.669

> <Idih>
0.000

> <Tether>
0.000

$$$$
VeraChem MOL file


 29 28  0  0  0  0  0  0  0  0999 V2000     
   21.3192   19.1478   20.8182 C   0  0  0  0  0  0  0  0  0  0  0  0
   21.6143   19.3265   21.8586 H   0  0  0  0  0  0  0  0  0  0  0  0
   21.2263   18.0656   20.6600 H   0  0  0  0  0  0  0  0  0  0  0  0
   22.1348   19.5122   20.1804 H   0  0  0  0  0  0  0  0  0  0  0  0
   20.0018   19.8769   20.4772 C   0  0  0  0  0  0  0  0  0  0  0  0
   19.8476   19.8318   19.3900 H   0  0  0  0  0  0  0  0  0  0  0  0
   20.0991   20.9427   20.7263 H   0  0  0  0  0  0  0  0  0  0  0  0
   18.7469   19.2912   21.1734 C   0  0  0  0  0  0  0  0  0  0  0  0
   17.8756   19.8480   20.8020 H   0  0  0  0  0  0  0  0  0  0  0  0
   18.5896   18.2515   20.8554 H   0  0  0  0  0  0  0  0  0  0  0  0
   18.7533   19.3875   22.7215 C   0  0  0  0  0  0  0  0  0  0  0  0
   17.7204   19.5486   23.0600 H   0  0  0  0  0  0  0  0  0  0  0  0
   19.3188   20.2751   23.0347 H   0  0  0  0  0  0  0  0  0  0  0  0
   19.2945   18.1128   23.4190 C   0  0  0  0  0  0  0  0  0  0  0  0
   18.7319   17.2416   23.0566 H   0  0  0  0  0  0  0  0  0  0  0  0
   20.3378   17.9296   23.1394 H   0  0  0  0  0  0  0  0  0  0  0  0
   19.1653   18.1642   24.9633 C   0  0  0  0  0  0  0  0  0  0  0  0
   19.5441   17.2240   25.3854 H   0  0  0  0  0  0  0  0  0  0  0  0
   18.0986   18.2045   25.2202 H   0  0  0  0  0  0  0  0  0  0  0  0
   19.8833   19.3543   25.6423 C   0  0  2  0  0  0  0  0  0  0  0  0
   19.4998   20.2826   25.2088 H   0  0  0  0  0  0  0  0  0  0  0  0
   21.4065   19.3089   25.4286 C   0  0  0  0  0  0  0  0  0  0  0  0
   21.8313   18.3679   25.7996 H   0  0  0  0  0  0  0  0  0  0  0  0
   21.6617   19.4065   24.3675 H   0  0  0  0  0  0  0  0  0  0  0  0
   21.8960   20.1357   25.9578 H   0  0  0  0  0  0  0  0  0  0  0  0
   19.5651   19.4123   27.1104 N   0  3  0  0  0  0  0  0  0  0  0  0
   18.5570   19.4858   27.2752 H   0  0  0  0  0  0  0  0  0  0  0  0
   20.0067   20.2211   27.5572 H   0  0  0  0  0  0  0  0  0  0  0  0
   19.8964   18.5755   27.5980 H   0  0  0  0  0  0  0  0  0  0  0  0
  1  2  1  0  0  0  0
  1  3  1  0  0  0  0
  1  4  1  0  0  0  0
  1  5  1  0  0  0  0
  5  6  1  0  0  0  0
  5  7  1  0  0  0  0
  5  8  1  0  0  0  0
  8  9  1  0  0  0  0
  8 10  1  0  0  0  0
  8 11  1  0  0  0  0
 11 12  1  0  0  0  0
 11 13  1  0  0  0  0
 11 14  1  0  0  0  0
 14 15  1  0  0  0  0
 14 16  1  0  0  0  0
 14 17  1  0  0  0  0
 17 18  1  0  0  0  0
 17 19  1  0  0  0  0
 17 20  1  0  0  0  0
 20 21  1  0  0  0  0
 20 22  1  0  0  0  0
 22 23  1  0  0  0  0
 22 24  1  0  0  0  0
 22 25  1  0  0  0  0
 20 26  1  0  0  0  0
 26 27  1  0  0  0  0
 26 28  1  0  0  0  0
 26 29  1  0  0  0  0
M  END
> <VM2 Rank>
123

> <Conf_Id>
215

> <Probability>
0.01

> <Sum Probability>
99.79

> <Delta G>
4.157

> <G>
37.859

> <E>
-0.263

> <-TS>
38.123

> <U+W>
-24.408

> <U>
28.098

> <W>
-52.505

> <W(PB)>
-54.915

> <W(SA)>
2.409

> <Valence>
6.979

> <Coulomb>
20.251

> <VdW>
0.868

> <VdW6>
-10.914

> <VdW12>
11.782

> <Bond>
0.321

> <Angle>
2.264

> <Pdih>
4.394

> <Idih>
0.000

> <Tether>
0.000

$$$$
VeraChem MOL file


 29 28  0  0  0  0  0  0  0  0999 V2000     
   18.5032   19.3371   20.0505 C   0  0  0  0  0  0  0  0  0  0  0  0
   17.9304   19.0106   20.9255 H   0  0  0  0  0  0  0  0  0  0  0  0
   18.2284   20.3783   19.8370 H   0  0  0  0  0  0  0  0  0  0  0  0
   18.1831   18.7266   19.1963 H   0  0  0  0  0  0  0  0  0  0  0  0
   20.0282   19.2036   20.2696 C   0  0  0  0  0  0  0  0  0  0  0  0
   20.5322   19.5306   19.3493 H   0  0  0  0  0  0  0  0  0  0  0  0
   20.3040   18.1486   20.4063 H   0  0  0  0  0  0  0  0  0  0  0  0
   20.5557   20.0566   21.4519 C   0  0  0  0  0  0  0  0  0  0  0  0
   21.5473   20.4430   21.1782 H   0  0  0  0  0  0  0  0  0  0  0  0
   19.9223   20.9432   21.5931 H   0  0  0  0  0  0  0  0  0  0  0  0
   20.7079   19.2915   22.7919 C   0  0  0  0  0  0  0  0  0  0  0  0
   21.1554   19.9796   23.5206 H   0  0  0  0  0  0  0  0  0  0  0  0
   21.4281   18.4718   22.6630 H   0  0  0  0  0  0  0  0  0  0  0  0
   19.3815   18.7251   23.3558 C   0  0  0  0  0  0  0  0  0  0  0  0
   18.6272   19.5212   23.4086 H   0  0  0  0  0  0  0  0  0  0  0  0
   18.9886   17.9718   22.6612 H   0  0  0  0  0  0  0  0  0  0  0  0
   19.5431   18.0509   24.7427 C   0  0  0  0  0  0  0  0  0  0  0  0
   20.2393   17.2071   24.6462 H   0  0  0  0  0  0  0  0  0  0  0  0
   18.5791   17.6193   25.0430 H   0  0  0  0  0  0  0  0  0  0  0  0
   20.0470   18.9945   25.8579 C   0  0  2  0  0  0  0  0  0  0  0  0
   21.0216   19.3922   25.5605 H   0  0  0  0  0  0  0  0  0  0  0  0
   20.2286   18.2193   27.1724 C   0  0  0  0  0  0  0  0  0  0  0  0
   20.9366   17.3914   27.0415 H   0  0  0  0  0  0  0  0  0  0  0  0
   20.6243   18.8746   27.9581 H   0  0  0  0  0  0  0  0  0  0  0  0
   19.2761   17.8023   27.5226 H   0  0  0  0  0  0  0  0  0  0  0  0
   19.1407   20.1774   26.0614 N   0  3  0  0  0  0  0  0  0  0  0  0
   19.0443   20.7225   25.2003 H   0  0  0  0  0  0  0  0  0  0  0  0
   19.5010   20.8055   26.7854 H   0  0  0  0  0  0  0  0  0  0  0  0
   18.2033   19.8834   26.3481 H   0  0  0  0  0  0  0  0  0  0  0  0
  1  2  1  0  0  0  0
  1  3  1  0  0  0  0
  1  4  1  0  0  0  0
  1  5  1  0  0  0  0
  5  6  1  0  0  0  0
  5  7  1  0  0  0  0
  5  8  1  0  0  0  0
  8  9  1  0  0  0  0
  8 10  1  0  0  0  0
  8 11  1  0  0  0  0
 11 12  1  0  0  0  0
 11 13  1  0  0  0  0
 11 14  1  0  0  0  0
 14 15  1  0  0  0  0
 14 16  1  0  0  0  0
 14 17  1  0  0  0  0
 17 18  1  0  0  0  0
 17 19  1  0  0  0  0
 17 20  1  0  0  0  0
 20 21  1  0  0  0  0
 20 22  1  0  0  0  0
 22 23  1  0  0  0  0
 22 24  1  0  0  0  0
 22 25  1  0  0  0  0
 20 26  1  0  0  0  0
 26 27  1  0  0  0  0
 26 28  1  0  0  0  0
 26 29  1  0  0  0  0
M  END
> <VM2 Rank>
124

> <Conf_Id>
1047

> <Probability>
0.01

> <Sum Probability>
99.80

> <Delta G>
4.170

> <G>
37.872

> <E>
-0.035

> <-TS>
37.906

> <U+W>
-24.179

> <U>
28.057

> <W>
-52.236

> <W(PB)>
-54.697

> <W(SA)>
2.460

> <Valence>
6.543

> <Coulomb>
20.387

> <VdW>
1.128

> <VdW6>
-10.342

> <VdW12>
11.470

> <Bond>
0.308

> <Angle>
1.937

> <Pdih>
4.297

> <Idih>
0.000

> <Tether>
0.000

$$$$
VeraChem MOL file


 29 28  0  0  0  0  0  0  0  0999 V2000     
   19.5601   19.2337   19.1272 C   0  0  0  0  0  0  0  0  0  0  0  0
   18.5475   19.5917   18.8996 H   0  0  0  0  0  0  0  0  0  0  0  0
   20.2476   19.6830   18.3989 H   0  0  0  0  0  0  0  0  0  0  0  0
   19.5789   18.1457   18.9819 H   0  0  0  0  0  0  0  0  0  0  0  0
   19.9709   19.6077   20.5671 C   0  0  0  0  0  0  0  0  0  0  0  0
   19.9705   20.7015   20.6729 H   0  0  0  0  0  0  0  0  0  0  0  0
   21.0013   19.2712   20.7404 H   0  0  0  0  0  0  0  0  0  0  0  0
   19.0170   18.9813   21.6120 C   0  0  0  0  0  0  0  0  0  0  0  0
   17.9854   19.2667   21.3637 H   0  0  0  0  0  0  0  0  0  0  0  0
   19.0578   17.8855   21.5434 H   0  0  0  0  0  0  0  0  0  0  0  0
   19.3084   19.4233   23.0674 C   0  0  0  0  0  0  0  0  0  0  0  0
   18.4814   19.0645   23.6910 H   0  0  0  0  0  0  0  0  0  0  0  0
   19.3006   20.5203   23.1265 H   0  0  0  0  0  0  0  0  0  0  0  0
   20.6450   18.8724   23.6253 C   0  0  0  0  0  0  0  0  0  0  0  0
   20.6205   17.7746   23.6249 H   0  0  0  0  0  0  0  0  0  0  0  0
   21.4614   19.1507   22.9475 H   0  0  0  0  0  0  0  0  0  0  0  0
   21.0238   19.3968   25.0394 C   0  0  0  0  0  0  0  0  0  0  0  0
   21.1630   20.4850   24.9970 H   0  0  0  0  0  0  0  0  0  0  0  0
   22.0110   18.9877   25.2916 H   0  0  0  0  0  0  0  0  0  0  0  0
   20.0677   19.0574   26.2115 C   0  0  2  0  0  0  0  0  0  0  0  0
   20.6054   19.2948   27.1346 H   0  0  0  0  0  0  0  0  0  0  0  0
   19.7067   17.5627   26.2639 C   0  0  0  0  0  0  0  0  0  0  0  0
   19.1515   17.3336   27.1818 H   0  0  0  0  0  0  0  0  0  0  0  0
   19.0832   17.2664   25.4119 H   0  0  0  0  0  0  0  0  0  0  0  0
   20.6127   16.9440   26.2594 H   0  0  0  0  0  0  0  0  0  0  0  0
   18.8365   19.9207   26.2401 N   0  3  0  0  0  0  0  0  0  0  0  0
   19.0777   20.9152   26.2790 H   0  0  0  0  0  0  0  0  0  0  0  0
   18.2556   19.7151   27.0581 H   0  0  0  0  0  0  0  0  0  0  0  0
   18.2608   19.7755   25.4084 H   0  0  0  0  0  0  0  0  0  0  0  0
  1  2  1  0  0  0  0
  1  3  1  0  0  0  0
  1  4  1  0  0  0  0
  1  5  1  0  0  0  0
  5  6  1  0  0  0  0
  5  7  1  0  0  0  0
  5  8  1  0  0  0  0
  8  9  1  0  0  0  0
  8 10  1  0  0  0  0
  8 11  1  0  0  0  0
 11 12  1  0  0  0  0
 11 13  1  0  0  0  0
 11 14  1  0  0  0  0
 14 15  1  0  0  0  0
 14 16  1  0  0  0  0
 14 17  1  0  0  0  0
 17 18  1  0  0  0  0
 17 19  1  0  0  0  0
 17 20  1  0  0  0  0
 20 21  1  0  0  0  0
 20 22  1  0  0  0  0
 22 23  1  0  0  0  0
 22 24  1  0  0  0  0
 22 25  1  0  0  0  0
 20 26  1  0  0  0  0
 26 27  1  0  0  0  0
 26 28  1  0  0  0  0
 26 29  1  0  0  0  0
M  END
> <VM2 Rank>
125

> <Conf_Id>
686

> <Probability>
0.01

> <Sum Probability>
99.81

> <Delta G>
4.177

> <G>
37.879

> <E>
-0.108

> <-TS>
37.987

> <U+W>
-24.252

> <U>
28.089

> <W>
-52.342

> <W(PB)>
-54.818

> <W(SA)>
2.476

> <Valence>
5.754

> <Coulomb>
21.249

> <VdW>
1.087

> <VdW6>
-10.617

> <VdW12>
11.704

> <Bond>
0.344

> <Angle>
2.548

> <Pdih>
2.862

> <Idih>
0.000

> <Tether>
0.000

$$$$
VeraChem MOL file


 29 28  0  0  0  0  0  0  0  0999 V2000     
   18.1252   19.2757   20.4432 C   0  0  0  0  0  0  0  0  0  0  0  0
   17.9698   18.1894   20.4154 H   0  0  0  0  0  0  0  0  0  0  0  0
   17.6907   19.6624   21.3732 H   0  0  0  0  0  0  0  0  0  0  0  0
   17.5636   19.7165   19.6094 H   0  0  0  0  0  0  0  0  0  0  0  0
   19.6263   19.6255   20.3281 C   0  0  0  0  0  0  0  0  0  0  0  0
   19.7583   20.7145   20.3942 H   0  0  0  0  0  0  0  0  0  0  0  0
   19.9819   19.3329   19.3303 H   0  0  0  0  0  0  0  0  0  0  0  0
   20.5056   18.9258   21.3924 C   0  0  0  0  0  0  0  0  0  0  0  0
   20.3854   17.8368   21.3093 H   0  0  0  0  0  0  0  0  0  0  0  0
   21.5597   19.1386   21.1668 H   0  0  0  0  0  0  0  0  0  0  0  0
   20.1963   19.3761   22.8400 C   0  0  0  0  0  0  0  0  0  0  0  0
   19.1630   19.1060   23.0838 H   0  0  0  0  0  0  0  0  0  0  0  0
   20.2785   20.4696   22.9076 H   0  0  0  0  0  0  0  0  0  0  0  0
   21.1552   18.7176   23.8602 C   0  0  0  0  0  0  0  0  0  0  0  0
   21.0039   17.6299   23.8602 H   0  0  0  0  0  0  0  0  0  0  0  0
   22.1889   18.8730   23.5220 H   0  0  0  0  0  0  0  0  0  0  0  0
   21.0438   19.2716   25.3088 C   0  0  0  0  0  0  0  0  0  0  0  0
   21.3226   20.3334   25.3130 H   0  0  0  0  0  0  0  0  0  0  0  0
   21.8067   18.7685   25.9173 H   0  0  0  0  0  0  0  0  0  0  0  0
   19.6843   19.1062   26.0348 C   0  0  2  0  0  0  0  0  0  0  0  0
   19.8594   19.3408   27.0893 H   0  0  0  0  0  0  0  0  0  0  0  0
   19.1533   17.6636   25.9687 C   0  0  0  0  0  0  0  0  0  0  0  0
   18.2704   17.5496   26.6095 H   0  0  0  0  0  0  0  0  0  0  0  0
   18.8655   17.3841   24.9482 H   0  0  0  0  0  0  0  0  0  0  0  0
   19.9129   16.9538   26.3189 H   0  0  0  0  0  0  0  0  0  0  0  0
   18.6462   20.0938   25.5777 N   0  3  0  0  0  0  0  0  0  0  0  0
   18.9711   21.0581   25.6937 H   0  0  0  0  0  0  0  0  0  0  0  0
   17.7783   19.9975   26.1129 H   0  0  0  0  0  0  0  0  0  0  0  0
   18.4176   19.9618   24.5904 H   0  0  0  0  0  0  0  0  0  0  0  0
  1  2  1  0  0  0  0
  1  3  1  0  0  0  0
  1  4  1  0  0  0  0
  1  5  1  0  0  0  0
  5  6  1  0  0  0  0
  5  7  1  0  0  0  0
  5  8  1  0  0  0  0
  8  9  1  0  0  0  0
  8 10  1  0  0  0  0
  8 11  1  0  0  0  0
 11 12  1  0  0  0  0
 11 13  1  0  0  0  0
 11 14  1  0  0  0  0
 14 15  1  0  0  0  0
 14 16  1  0  0  0  0
 14 17  1  0  0  0  0
 17 18  1  0  0  0  0
 17 19  1  0  0  0  0
 17 20  1  0  0  0  0
 20 21  1  0  0  0  0
 20 22  1  0  0  0  0
 22 23  1  0  0  0  0
 22 24  1  0  0  0  0
 22 25  1  0  0  0  0
 20 26  1  0  0  0  0
 26 27  1  0  0  0  0
 26 28  1  0  0  0  0
 26 29  1  0  0  0  0
M  END
> <VM2 Rank>
126

> <Conf_Id>
142

> <Probability>
0.01

> <Sum Probability>
99.82

> <Delta G>
4.209

> <G>
37.911

> <E>
-0.172

> <-TS>
38.083

> <U+W>
-24.317

> <U>
28.046

> <W>
-52.362

> <W(PB)>
-54.807

> <W(SA)>
2.445

> <Valence>
5.555

> <Coulomb>
21.509

> <VdW>
0.981

> <VdW6>
-10.796

> <VdW12>
11.778

> <Bond>
0.331

> <Angle>
2.400

> <Pdih>
2.824

> <Idih>
0.000

> <Tether>
0.000

$$$$
VeraChem MOL file


 29 28  0  0  0  0  0  0  0  0999 V2000     
   20.2260   21.0448   20.9131 C   0  0  0  0  0  0  0  0  0  0  0  0
   20.6932   20.7529   19.9635 H   0  0  0  0  0  0  0  0  0  0  0  0
   19.5855   21.9151   20.7200 H   0  0  0  0  0  0  0  0  0  0  0  0
   21.0203   21.3573   21.6034 H   0  0  0  0  0  0  0  0  0  0  0  0
   19.4019   19.8828   21.5061 C   0  0  0  0  0  0  0  0  0  0  0  0
   18.5958   19.6140   20.8092 H   0  0  0  0  0  0  0  0  0  0  0  0
   18.9188   20.2244   22.4294 H   0  0  0  0  0  0  0  0  0  0  0  0
   20.2840   18.6426   21.7824 C   0  0  0  0  0  0  0  0  0  0  0  0
   20.7577   18.3329   20.8406 H   0  0  0  0  0  0  0  0  0  0  0  0
   21.1103   18.9021   22.4558 H   0  0  0  0  0  0  0  0  0  0  0  0
   19.4958   17.4348   22.3478 C   0  0  0  0  0  0  0  0  0  0  0  0
   20.1813   16.5806   22.4356 H   0  0  0  0  0  0  0  0  0  0  0  0
   18.7394   17.1325   21.6104 H   0  0  0  0  0  0  0  0  0  0  0  0
   18.7935   17.6523   23.7156 C   0  0  0  0  0  0  0  0  0  0  0  0
   18.0067   18.4116   23.6285 H   0  0  0  0  0  0  0  0  0  0  0  0
   18.2661   16.7200   23.9604 H   0  0  0  0  0  0  0  0  0  0  0  0
   19.7535   17.9748   24.8932 C   0  0  0  0  0  0  0  0  0  0  0  0
   20.6796   17.3980   24.7687 H   0  0  0  0  0  0  0  0  0  0  0  0
   19.3010   17.6170   25.8276 H   0  0  0  0  0  0  0  0  0  0  0  0
   20.0874   19.4750   25.0590 C   0  0  2  0  0  0  0  0  0  0  0  0
   20.4361   19.8683   24.1013 H   0  0  0  0  0  0  0  0  0  0  0  0
   21.2118   19.6610   26.0898 C   0  0  0  0  0  0  0  0  0  0  0  0
   20.9128   19.2844   27.0760 H   0  0  0  0  0  0  0  0  0  0  0  0
   22.1174   19.1250   25.7794 H   0  0  0  0  0  0  0  0  0  0  0  0
   21.4725   20.7216   26.1931 H   0  0  0  0  0  0  0  0  0  0  0  0
   18.8822   20.2878   25.4471 N   0  3  0  0  0  0  0  0  0  0  0  0
   19.1111   21.2830   25.5242 H   0  0  0  0  0  0  0  0  0  0  0  0
   18.5091   19.9892   26.3522 H   0  0  0  0  0  0  0  0  0  0  0  0
   18.1302   20.1962   24.7593 H   0  0  0  0  0  0  0  0  0  0  0  0
  1  2  1  0  0  0  0
  1  3  1  0  0  0  0
  1  4  1  0  0  0  0
  1  5  1  0  0  0  0
  5  6  1  0  0  0  0
  5  7  1  0  0  0  0
  5  8  1  0  0  0  0
  8  9  1  0  0  0  0
  8 10  1  0  0  0  0
  8 11  1  0  0  0  0
 11 12  1  0  0  0  0
 11 13  1  0  0  0  0
 11 14  1  0  0  0  0
 14 15  1  0  0  0  0
 14 16  1  0  0  0  0
 14 17  1  0  0  0  0
 17 18  1  0  0  0  0
 17 19  1  0  0  0  0
 17 20  1  0  0  0  0
 20 21  1  0  0  0  0
 20 22  1  0  0  0  0
 22 23  1  0  0  0  0
 22 24  1  0  0  0  0
 22 25  1  0  0  0  0
 20 26  1  0  0  0  0
 26 27  1  0  0  0  0
 26 28  1  0  0  0  0
 26 29  1  0  0  0  0
M  END
> <VM2 Rank>
127

> <Conf_Id>
677

> <Probability>
0.01

> <Sum Probability>
99.83

> <Delta G>
4.227

> <G>
37.929

> <E>
-0.490

> <-TS>
38.419

> <U+W>
-24.635

> <U>
28.071

> <W>
-52.705

> <W(PB)>
-55.097

> <W(SA)>
2.392

> <Valence>
6.292

> <Coulomb>
21.484

> <VdW>
0.295

> <VdW6>
-11.563

> <VdW12>
11.859

> <Bond>
0.313

> <Angle>
2.278

> <Pdih>
3.700

> <Idih>
0.000

> <Tether>
0.000

$$$$
VeraChem MOL file


 29 28  0  0  0  0  0  0  0  0999 V2000     
   19.3783   20.7002   20.0010 C   0  0  0  0  0  0  0  0  0  0  0  0
   19.8022   20.2660   19.0861 H   0  0  0  0  0  0  0  0  0  0  0  0
   18.2840   20.6570   19.9250 H   0  0  0  0  0  0  0  0  0  0  0  0
   19.6722   21.7572   20.0395 H   0  0  0  0  0  0  0  0  0  0  0  0
   19.8768   19.9502   21.2543 C   0  0  0  0  0  0  0  0  0  0  0  0
   19.4614   20.4371   22.1462 H   0  0  0  0  0  0  0  0  0  0  0  0
   20.9706   20.0335   21.3177 H   0  0  0  0  0  0  0  0  0  0  0  0
   19.4658   18.4604   21.2280 C   0  0  0  0  0  0  0  0  0  0  0  0
   18.3698   18.3842   21.2425 H   0  0  0  0  0  0  0  0  0  0  0  0
   19.7898   18.0181   20.2758 H   0  0  0  0  0  0  0  0  0  0  0  0
   20.0561   17.6117   22.3838 C   0  0  0  0  0  0  0  0  0  0  0  0
   21.1526   17.5933   22.3174 H   0  0  0  0  0  0  0  0  0  0  0  0
   19.7334   16.5729   22.2282 H   0  0  0  0  0  0  0  0  0  0  0  0
   19.6084   18.0496   23.8026 C   0  0  0  0  0  0  0  0  0  0  0  0
   18.6206   18.5255   23.7489 H   0  0  0  0  0  0  0  0  0  0  0  0
   19.4783   17.1451   24.4113 H   0  0  0  0  0  0  0  0  0  0  0  0
   20.6359   18.9774   24.5083 C   0  0  0  0  0  0  0  0  0  0  0  0
   20.8761   19.8321   23.8664 H   0  0  0  0  0  0  0  0  0  0  0  0
   21.5797   18.4318   24.6392 H   0  0  0  0  0  0  0  0  0  0  0  0
   20.1834   19.5187   25.8848 C   0  0  2  0  0  0  0  0  0  0  0  0
   20.9874   20.1575   26.2634 H   0  0  0  0  0  0  0  0  0  0  0  0
   19.9645   18.3908   26.9082 C   0  0  0  0  0  0  0  0  0  0  0  0
   19.7785   18.8086   27.9052 H   0  0  0  0  0  0  0  0  0  0  0  0
   19.1053   17.7634   26.6426 H   0  0  0  0  0  0  0  0  0  0  0  0
   20.8516   17.7490   26.9768 H   0  0  0  0  0  0  0  0  0  0  0  0
   18.9668   20.3969   25.7830 N   0  3  0  0  0  0  0  0  0  0  0  0
   18.7146   20.7924   26.6933 H   0  0  0  0  0  0  0  0  0  0  0  0
   18.1579   19.8718   25.4417 H   0  0  0  0  0  0  0  0  0  0  0  0
   19.1212   21.1797   25.1413 H   0  0  0  0  0  0  0  0  0  0  0  0
  1  2  1  0  0  0  0
  1  3  1  0  0  0  0
  1  4  1  0  0  0  0
  1  5  1  0  0  0  0
  5  6  1  0  0  0  0
  5  7  1  0  0  0  0
  5  8  1  0  0  0  0
  8  9  1  0  0  0  0
  8 10  1  0  0  0  0
  8 11  1  0  0  0  0
 11 12  1  0  0  0  0
 11 13  1  0  0  0  0
 11 14  1  0  0  0  0
 14 15  1  0  0  0  0
 14 16  1  0  0  0  0
 14 17  1  0  0  0  0
 17 18  1  0  0  0  0
 17 19  1  0  0  0  0
 17 20  1  0  0  0  0
 20 21  1  0  0  0  0
 20 22  1  0  0  0  0
 22 23  1  0  0  0  0
 22 24  1  0  0  0  0
 22 25  1  0  0  0  0
 20 26  1  0  0  0  0
 26 27  1  0  0  0  0
 26 28  1  0  0  0  0
 26 29  1  0  0  0  0
M  END
> <VM2 Rank>
128

> <Conf_Id>
874

> <Probability>
0.01

> <Sum Probability>
99.83

> <Delta G>
4.235

> <G>
37.937

> <E>
-0.008

> <-TS>
37.945

> <U+W>
-24.153

> <U>
28.637

> <W>
-52.789

> <W(PB)>
-55.213

> <W(SA)>
2.424

> <Valence>
6.737

> <Coulomb>
20.767

> <VdW>
1.133

> <VdW6>
-10.382

> <VdW12>
11.515

> <Bond>
0.321

> <Angle>
1.947

> <Pdih>
4.470

> <Idih>
0.000

> <Tether>
0.000

$$$$
VeraChem MOL file


 29 28  0  0  0  0  0  0  0  0999 V2000     
   18.6503   20.3779   20.8254 C   0  0  0  0  0  0  0  0  0  0  0  0
   18.1235   20.9004   20.0166 H   0  0  0  0  0  0  0  0  0  0  0  0
   17.9128   20.1222   21.5971 H   0  0  0  0  0  0  0  0  0  0  0  0
   19.3749   21.0823   21.2518 H   0  0  0  0  0  0  0  0  0  0  0  0
   19.3513   19.1134   20.2834 C   0  0  0  0  0  0  0  0  0  0  0  0
   20.1348   19.4073   19.5711 H   0  0  0  0  0  0  0  0  0  0  0  0
   18.6218   18.5267   19.7078 H   0  0  0  0  0  0  0  0  0  0  0  0
   19.9589   18.2008   21.3791 C   0  0  0  0  0  0  0  0  0  0  0  0
   19.1619   17.8210   22.0296 H   0  0  0  0  0  0  0  0  0  0  0  0
   20.3730   17.3160   20.8762 H   0  0  0  0  0  0  0  0  0  0  0  0
   21.0960   18.8541   22.2115 C   0  0  0  0  0  0  0  0  0  0  0  0
   21.6256   19.5890   21.5899 H   0  0  0  0  0  0  0  0  0  0  0  0
   21.8422   18.0853   22.4551 H   0  0  0  0  0  0  0  0  0  0  0  0
   20.6419   19.5268   23.5335 C   0  0  0  0  0  0  0  0  0  0  0  0
   21.4873   20.1031   23.9342 H   0  0  0  0  0  0  0  0  0  0  0  0
   19.8450   20.2513   23.3337 H   0  0  0  0  0  0  0  0  0  0  0  0
   20.1804   18.5118   24.6111 C   0  0  0  0  0  0  0  0  0  0  0  0
   20.9646   17.7550   24.7452 H   0  0  0  0  0  0  0  0  0  0  0  0
   19.2835   17.9773   24.2749 H   0  0  0  0  0  0  0  0  0  0  0  0
   19.8940   19.1766   25.9748 C   0  0  2  0  0  0  0  0  0  0  0  0
   20.7913   19.7197   26.2870 H   0  0  0  0  0  0  0  0  0  0  0  0
   19.5823   18.1089   27.0355 C   0  0  0  0  0  0  0  0  0  0  0  0
   18.6856   17.5352   26.7700 H   0  0  0  0  0  0  0  0  0  0  0  0
   20.4189   17.4067   27.1393 H   0  0  0  0  0  0  0  0  0  0  0  0
   19.4138   18.5726   28.0153 H   0  0  0  0  0  0  0  0  0  0  0  0
   18.7809   20.1857   25.8996 N   0  3  0  0  0  0  0  0  0  0  0  0
   17.9015   19.7495   25.6100 H   0  0  0  0  0  0  0  0  0  0  0  0
   18.9943   20.9275   25.2274 H   0  0  0  0  0  0  0  0  0  0  0  0
   18.6184   20.6314   26.8071 H   0  0  0  0  0  0  0  0  0  0  0  0
  1  2  1  0  0  0  0
  1  3  1  0  0  0  0
  1  4  1  0  0  0  0
  1  5  1  0  0  0  0
  5  6  1  0  0  0  0
  5  7  1  0  0  0  0
  5  8  1  0  0  0  0
  8  9  1  0  0  0  0
  8 10  1  0  0  0  0
  8 11  1  0  0  0  0
 11 12  1  0  0  0  0
 11 13  1  0  0  0  0
 11 14  1  0  0  0  0
 14 15  1  0  0  0  0
 14 16  1  0  0  0  0
 14 17  1  0  0  0  0
 17 18  1  0  0  0  0
 17 19  1  0  0  0  0
 17 20  1  0  0  0  0
 20 21  1  0  0  0  0
 20 22  1  0  0  0  0
 22 23  1  0  0  0  0
 22 24  1  0  0  0  0
 22 25  1  0  0  0  0
 20 26  1  0  0  0  0
 26 27  1  0  0  0  0
 26 28  1  0  0  0  0
 26 29  1  0  0  0  0
M  END
> <VM2 Rank>
129

> <Conf_Id>
1315

> <Probability>
0.01

> <Sum Probability>
99.84

> <Delta G>
4.273

> <G>
37.975

> <E>
0.246

> <-TS>
37.730

> <U+W>
-23.899

> <U>
28.595

> <W>
-52.493

> <W(PB)>
-54.945

> <W(SA)>
2.452

> <Valence>
6.843

> <Coulomb>
20.557

> <VdW>
1.194

> <VdW6>
-10.198

> <VdW12>
11.392

> <Bond>
0.333

> <Angle>
1.972

> <Pdih>
4.539

> <Idih>
0.000

> <Tether>
0.000

$$$$
VeraChem MOL file


 29 28  0  0  0  0  0  0  0  0999 V2000     
   18.4797   18.3186   20.8159 C   0  0  0  0  0  0  0  0  0  0  0  0
   18.3443   17.9716   21.8475 H   0  0  0  0  0  0  0  0  0  0  0  0
   17.6880   19.0445   20.5895 H   0  0  0  0  0  0  0  0  0  0  0  0
   18.3408   17.4529   20.1555 H   0  0  0  0  0  0  0  0  0  0  0  0
   19.8791   18.9398   20.6063 C   0  0  0  0  0  0  0  0  0  0  0  0
   20.0119   19.1587   19.5376 H   0  0  0  0  0  0  0  0  0  0  0  0
   20.6532   18.2035   20.8605 H   0  0  0  0  0  0  0  0  0  0  0  0
   20.0997   20.2478   21.4081 C   0  0  0  0  0  0  0  0  0  0  0  0
   21.0966   20.6442   21.1713 H   0  0  0  0  0  0  0  0  0  0  0  0
   19.3847   21.0047   21.0574 H   0  0  0  0  0  0  0  0  0  0  0  0
   19.9645   20.1092   22.9462 C   0  0  0  0  0  0  0  0  0  0  0  0
   18.9357   19.8210   23.1903 H   0  0  0  0  0  0  0  0  0  0  0  0
   20.1299   21.0971   23.3975 H   0  0  0  0  0  0  0  0  0  0  0  0
   20.9632   19.0964   23.5594 C   0  0  0  0  0  0  0  0  0  0  0  0
   20.7136   18.0787   23.2329 H   0  0  0  0  0  0  0  0  0  0  0  0
   21.9634   19.3027   23.1542 H   0  0  0  0  0  0  0  0  0  0  0  0
   21.0602   19.1404   25.1103 C   0  0  0  0  0  0  0  0  0  0  0  0
   21.4263   20.1270   25.4232 H   0  0  0  0  0  0  0  0  0  0  0  0
   21.8403   18.4308   25.4159 H   0  0  0  0  0  0  0  0  0  0  0  0
   19.7793   18.8007   25.9144 C   0  0  2  0  0  0  0  0  0  0  0  0
   20.0863   18.6717   26.9569 H   0  0  0  0  0  0  0  0  0  0  0  0
   19.1324   17.4806   25.4605 C   0  0  0  0  0  0  0  0  0  0  0  0
   18.3200   17.1972   26.1408 H   0  0  0  0  0  0  0  0  0  0  0  0
   18.7118   17.5619   24.4513 H   0  0  0  0  0  0  0  0  0  0  0  0
   19.8679   16.6666   25.4626 H   0  0  0  0  0  0  0  0  0  0  0  0
   18.7779   19.9224   25.9328 N   0  3  0  0  0  0  0  0  0  0  0  0
   19.1882   20.7838   26.3050 H   0  0  0  0  0  0  0  0  0  0  0  0
   17.9695   19.6915   26.5175 H   0  0  0  0  0  0  0  0  0  0  0  0
   18.4321   20.1262   24.9929 H   0  0  0  0  0  0  0  0  0  0  0  0
  1  2  1  0  0  0  0
  1  3  1  0  0  0  0
  1  4  1  0  0  0  0
  1  5  1  0  0  0  0
  5  6  1  0  0  0  0
  5  7  1  0  0  0  0
  5  8  1  0  0  0  0
  8  9  1  0  0  0  0
  8 10  1  0  0  0  0
  8 11  1  0  0  0  0
 11 12  1  0  0  0  0
 11 13  1  0  0  0  0
 11 14  1  0  0  0  0
 14 15  1  0  0  0  0
 14 16  1  0  0  0  0
 14 17  1  0  0  0  0
 17 18  1  0  0  0  0
 17 19  1  0  0  0  0
 17 20  1  0  0  0  0
 20 21  1  0  0  0  0
 20 22  1  0  0  0  0
 22 23  1  0  0  0  0
 22 24  1  0  0  0  0
 22 25  1  0  0  0  0
 20 26  1  0  0  0  0
 26 27  1  0  0  0  0
 26 28  1  0  0  0  0
 26 29  1  0  0  0  0
M  END
> <VM2 Rank>
130

> <Conf_Id>
1335

> <Probability>
0.01

> <Sum Probability>
99.85

> <Delta G>
4.333

> <G>
38.035

> <E>
-0.462

> <-TS>
38.497

> <U+W>
-24.607

> <U>
28.222

> <W>
-52.829

> <W(PB)>
-55.186

> <W(SA)>
2.358

> <Valence>
5.955

> <Coulomb>
21.478

> <VdW>
0.789

> <VdW6>
-11.978

> <VdW12>
12.767

> <Bond>
0.372

> <Angle>
2.690

> <Pdih>
2.893

> <Idih>
0.000

> <Tether>
0.000

$$$$
VeraChem MOL file


 29 28  0  0  0  0  0  0  0  0999 V2000     
   18.3009   18.3456   21.3908 C   0  0  0  0  0  0  0  0  0  0  0  0
   17.8354   17.5307   20.8216 H   0  0  0  0  0  0  0  0  0  0  0  0
   18.5628   17.9481   22.3766 H   0  0  0  0  0  0  0  0  0  0  0  0
   17.5448   19.1293   21.5285 H   0  0  0  0  0  0  0  0  0  0  0  0
   19.5347   18.8925   20.6359 C   0  0  0  0  0  0  0  0  0  0  0  0
   19.2072   19.1892   19.6297 H   0  0  0  0  0  0  0  0  0  0  0  0
   20.2757   18.0946   20.4885 H   0  0  0  0  0  0  0  0  0  0  0  0
   20.1936   20.1210   21.3157 C   0  0  0  0  0  0  0  0  0  0  0  0
   20.5993   20.7635   20.5220 H   0  0  0  0  0  0  0  0  0  0  0  0
   19.4356   20.7330   21.8218 H   0  0  0  0  0  0  0  0  0  0  0  0
   21.3673   19.7886   22.2766 C   0  0  0  0  0  0  0  0  0  0  0  0
   21.8318   20.7305   22.5990 H   0  0  0  0  0  0  0  0  0  0  0  0
   22.1442   19.2526   21.7142 H   0  0  0  0  0  0  0  0  0  0  0  0
   21.0042   18.9607   23.5339 C   0  0  0  0  0  0  0  0  0  0  0  0
   20.6379   17.9744   23.2268 H   0  0  0  0  0  0  0  0  0  0  0  0
   21.9260   18.7742   24.1019 H   0  0  0  0  0  0  0  0  0  0  0  0
   19.9831   19.6696   24.4610 C   0  0  0  0  0  0  0  0  0  0  0  0
   19.0247   19.7997   23.9436 H   0  0  0  0  0  0  0  0  0  0  0  0
   20.3565   20.6784   24.6807 H   0  0  0  0  0  0  0  0  0  0  0  0
   19.7458   18.9316   25.7977 C   0  0  2  0  0  0  0  0  0  0  0  0
   20.7165   18.7631   26.2741 H   0  0  0  0  0  0  0  0  0  0  0  0
   19.0593   17.5693   25.5922 C   0  0  0  0  0  0  0  0  0  0  0  0
   18.1023   17.6821   25.0678 H   0  0  0  0  0  0  0  0  0  0  0  0
   19.6912   16.8871   25.0121 H   0  0  0  0  0  0  0  0  0  0  0  0
   18.8628   17.0868   26.5576 H   0  0  0  0  0  0  0  0  0  0  0  0
   18.9470   19.7772   26.7502 N   0  3  0  0  0  0  0  0  0  0  0  0
   18.8208   19.3073   27.6512 H   0  0  0  0  0  0  0  0  0  0  0  0
   18.0154   19.9810   26.3786 H   0  0  0  0  0  0  0  0  0  0  0  0
   19.4075   20.6729   26.9359 H   0  0  0  0  0  0  0  0  0  0  0  0
  1  2  1  0  0  0  0
  1  3  1  0  0  0  0
  1  4  1  0  0  0  0
  1  5  1  0  0  0  0
  5  6  1  0  0  0  0
  5  7  1  0  0  0  0
  5  8  1  0  0  0  0
  8  9  1  0  0  0  0
  8 10  1  0  0  0  0
  8 11  1  0  0  0  0
 11 12  1  0  0  0  0
 11 13  1  0  0  0  0
 11 14  1  0  0  0  0
 14 15  1  0  0  0  0
 14 16  1  0  0  0  0
 14 17  1  0  0  0  0
 17 18  1  0  0  0  0
 17 19  1  0  0  0  0
 17 20  1  0  0  0  0
 20 21  1  0  0  0  0
 20 22  1  0  0  0  0
 22 23  1  0  0  0  0
 22 24  1  0  0  0  0
 22 25  1  0  0  0  0
 20 26  1  0  0  0  0
 26 27  1  0  0  0  0
 26 28  1  0  0  0  0
 26 29  1  0  0  0  0
M  END
> <VM2 Rank>
131

> <Conf_Id>
303

> <Probability>
0.01

> <Sum Probability>
99.86

> <Delta G>
4.336

> <G>
38.038

> <E>
-0.301

> <-TS>
38.339

> <U+W>
-24.446

> <U>
28.291

> <W>
-52.737

> <W(PB)>
-55.104

> <W(SA)>
2.367

> <Valence>
7.253

> <Coulomb>
20.286

> <VdW>
0.753

> <VdW6>
-11.321

> <VdW12>
12.074

> <Bond>
0.335

> <Angle>
2.556

> <Pdih>
4.362

> <Idih>
0.000

> <Tether>
0.000

$$$$
VeraChem MOL file


 29 28  0  0  0  0  0  0  0  0999 V2000     
   18.7002   18.7539   20.0427 C   0  0  0  0  0  0  0  0  0  0  0  0
   18.3707   18.1393   20.8898 H   0  0  0  0  0  0  0  0  0  0  0  0
   17.9630   19.5525   19.8885 H   0  0  0  0  0  0  0  0  0  0  0  0
   18.6962   18.1153   19.1500 H   0  0  0  0  0  0  0  0  0  0  0  0
   20.1101   19.3386   20.2836 C   0  0  0  0  0  0  0  0  0  0  0  0
   20.4474   19.8373   19.3642 H   0  0  0  0  0  0  0  0  0  0  0  0
   20.8244   18.5235   20.4591 H   0  0  0  0  0  0  0  0  0  0  0  0
   20.1647   20.3629   21.4462 C   0  0  0  0  0  0  0  0  0  0  0  0
   21.1943   20.7336   21.5437 H   0  0  0  0  0  0  0  0  0  0  0  0
   19.5566   21.2361   21.1724 H   0  0  0  0  0  0  0  0  0  0  0  0
   19.6833   19.8404   22.8250 C   0  0  0  0  0  0  0  0  0  0  0  0
   18.6274   19.5453   22.7648 H   0  0  0  0  0  0  0  0  0  0  0  0
   19.7344   20.6820   23.5255 H   0  0  0  0  0  0  0  0  0  0  0  0
   20.5317   18.6661   23.3746 C   0  0  0  0  0  0  0  0  0  0  0  0
   20.5731   17.8667   22.6242 H   0  0  0  0  0  0  0  0  0  0  0  0
   21.5676   19.0014   23.5219 H   0  0  0  0  0  0  0  0  0  0  0  0
   20.0001   18.0375   24.6897 C   0  0  0  0  0  0  0  0  0  0  0  0
   20.6294   17.1634   24.9043 H   0  0  0  0  0  0  0  0  0  0  0  0
   18.9859   17.6449   24.5386 H   0  0  0  0  0  0  0  0  0  0  0  0
   20.0246   18.9777   25.9183 C   0  0  2  0  0  0  0  0  0  0  0  0
   20.9305   19.5895   25.8675 H   0  0  0  0  0  0  0  0  0  0  0  0
   20.0690   18.1590   27.2192 C   0  0  0  0  0  0  0  0  0  0  0  0
   20.1011   18.8204   28.0938 H   0  0  0  0  0  0  0  0  0  0  0  0
   19.1873   17.5124   27.3112 H   0  0  0  0  0  0  0  0  0  0  0  0
   20.9635   17.5245   27.2515 H   0  0  0  0  0  0  0  0  0  0  0  0
   18.8523   19.9198   25.9547 N   0  3  0  0  0  0  0  0  0  0  0  0
   17.9692   19.4098   26.0412 H   0  0  0  0  0  0  0  0  0  0  0  0
   18.7992   20.4849   25.1042 H   0  0  0  0  0  0  0  0  0  0  0  0
   18.9138   20.5622   26.7499 H   0  0  0  0  0  0  0  0  0  0  0  0
  1  2  1  0  0  0  0
  1  3  1  0  0  0  0
  1  4  1  0  0  0  0
  1  5  1  0  0  0  0
  5  6  1  0  0  0  0
  5  7  1  0  0  0  0
  5  8  1  0  0  0  0
  8  9  1  0  0  0  0
  8 10  1  0  0  0  0
  8 11  1  0  0  0  0
 11 12  1  0  0  0  0
 11 13  1  0  0  0  0
 11 14  1  0  0  0  0
 14 15  1  0  0  0  0
 14 16  1  0  0  0  0
 14 17  1  0  0  0  0
 17 18  1  0  0  0  0
 17 19  1  0  0  0  0
 17 20  1  0  0  0  0
 20 21  1  0  0  0  0
 20 22  1  0  0  0  0
 22 23  1  0  0  0  0
 22 24  1  0  0  0  0
 22 25  1  0  0  0  0
 20 26  1  0  0  0  0
 26 27  1  0  0  0  0
 26 28  1  0  0  0  0
 26 29  1  0  0  0  0
M  END
> <VM2 Rank>
132

> <Conf_Id>
1011

> <Probability>
0.01

> <Sum Probability>
99.86

> <Delta G>
4.369

> <G>
38.071

> <E>
0.333

> <-TS>
37.738

> <U+W>
-23.811

> <U>
28.430

> <W>
-52.241

> <W(PB)>
-54.683

> <W(SA)>
2.442

> <Valence>
6.077

> <Coulomb>
21.131

> <VdW>
1.221

> <VdW6>
-10.542

> <VdW12>
11.763

> <Bond>
0.334

> <Angle>
2.388

> <Pdih>
3.355

> <Idih>
0.000

> <Tether>
0.000

$$$$
VeraChem MOL file


 29 28  0  0  0  0  0  0  0  0999 V2000     
   19.5081   18.1717   19.9317 C   0  0  0  0  0  0  0  0  0  0  0  0
   18.7829   18.0590   19.1155 H   0  0  0  0  0  0  0  0  0  0  0  0
   20.4604   17.7439   19.5923 H   0  0  0  0  0  0  0  0  0  0  0  0
   19.1525   17.5727   20.7774 H   0  0  0  0  0  0  0  0  0  0  0  0
   19.6757   19.6632   20.3043 C   0  0  0  0  0  0  0  0  0  0  0  0
   18.7039   20.1031   20.5680 H   0  0  0  0  0  0  0  0  0  0  0  0
   20.0167   20.1997   19.4078 H   0  0  0  0  0  0  0  0  0  0  0  0
   20.7017   19.9000   21.4423 C   0  0  0  0  0  0  0  0  0  0  0  0
   21.4629   19.1077   21.4388 H   0  0  0  0  0  0  0  0  0  0  0  0
   21.2436   20.8309   21.2253 H   0  0  0  0  0  0  0  0  0  0  0  0
   20.0852   20.0393   22.8582 C   0  0  0  0  0  0  0  0  0  0  0  0
   19.4068   20.9034   22.8767 H   0  0  0  0  0  0  0  0  0  0  0  0
   20.8999   20.2743   23.5552 H   0  0  0  0  0  0  0  0  0  0  0  0
   19.3284   18.7810   23.3497 C   0  0  0  0  0  0  0  0  0  0  0  0
   18.4660   18.6015   22.6952 H   0  0  0  0  0  0  0  0  0  0  0  0
   19.9731   17.8970   23.2590 H   0  0  0  0  0  0  0  0  0  0  0  0
   18.7999   18.9109   24.8019 C   0  0  0  0  0  0  0  0  0  0  0  0
   18.2433   18.0001   25.0598 H   0  0  0  0  0  0  0  0  0  0  0  0
   18.0711   19.7315   24.8333 H   0  0  0  0  0  0  0  0  0  0  0  0
   19.8807   19.1665   25.8791 C   0  0  2  0  0  0  0  0  0  0  0  0
   20.4156   20.0854   25.6221 H   0  0  0  0  0  0  0  0  0  0  0  0
   20.9001   18.0166   25.9615 C   0  0  0  0  0  0  0  0  0  0  0  0
   20.4028   17.0589   26.1596 H   0  0  0  0  0  0  0  0  0  0  0  0
   21.4692   17.9226   25.0292 H   0  0  0  0  0  0  0  0  0  0  0  0
   21.6232   18.1978   26.7662 H   0  0  0  0  0  0  0  0  0  0  0  0
   19.2562   19.4069   27.2253 N   0  3  0  0  0  0  0  0  0  0  0  0
   18.6046   20.1967   27.2032 H   0  0  0  0  0  0  0  0  0  0  0  0
   19.9648   19.6163   27.9344 H   0  0  0  0  0  0  0  0  0  0  0  0
   18.7350   18.5869   27.5474 H   0  0  0  0  0  0  0  0  0  0  0  0
  1  2  1  0  0  0  0
  1  3  1  0  0  0  0
  1  4  1  0  0  0  0
  1  5  1  0  0  0  0
  5  6  1  0  0  0  0
  5  7  1  0  0  0  0
  5  8  1  0  0  0  0
  8  9  1  0  0  0  0
  8 10  1  0  0  0  0
  8 11  1  0  0  0  0
 11 12  1  0  0  0  0
 11 13  1  0  0  0  0
 11 14  1  0  0  0  0
 14 15  1  0  0  0  0
 14 16  1  0  0  0  0
 14 17  1  0  0  0  0
 17 18  1  0  0  0  0
 17 19  1  0  0  0  0
 17 20  1  0  0  0  0
 20 21  1  0  0  0  0
 20 22  1  0  0  0  0
 22 23  1  0  0  0  0
 22 24  1  0  0  0  0
 22 25  1  0  0  0  0
 20 26  1  0  0  0  0
 26 27  1  0  0  0  0
 26 28  1  0  0  0  0
 26 29  1  0  0  0  0
M  END
> <VM2 Rank>
133

> <Conf_Id>
157

> <Probability>
0.01

> <Sum Probability>
99.87

> <Delta G>
4.395

> <G>
38.096

> <E>
0.103

> <-TS>
37.994

> <U+W>
-24.042

> <U>
28.220

> <W>
-52.262

> <W(PB)>
-54.724

> <W(SA)>
2.462

> <Valence>
7.039

> <Coulomb>
19.984

> <VdW>
1.197

> <VdW6>
-10.566

> <VdW12>
11.763

> <Bond>
0.320

> <Angle>
2.281

> <Pdih>
4.439

> <Idih>
0.000

> <Tether>
0.000

$$$$
VeraChem MOL file


 29 28  0  0  0  0  0  0  0  0999 V2000     
   19.0223   20.2256   20.0591 C   0  0  0  0  0  0  0  0  0  0  0  0
   19.6373   21.0215   20.4960 H   0  0  0  0  0  0  0  0  0  0  0  0
   19.5057   19.8883   19.1330 H   0  0  0  0  0  0  0  0  0  0  0  0
   18.0545   20.6677   19.7892 H   0  0  0  0  0  0  0  0  0  0  0  0
   18.8232   19.0493   21.0422 C   0  0  0  0  0  0  0  0  0  0  0  0
   18.1192   18.3358   20.5917 H   0  0  0  0  0  0  0  0  0  0  0  0
   18.3403   19.4142   21.9562 H   0  0  0  0  0  0  0  0  0  0  0  0
   20.1388   18.2979   21.3730 C   0  0  0  0  0  0  0  0  0  0  0  0
   19.9037   17.3525   21.8809 H   0  0  0  0  0  0  0  0  0  0  0  0
   20.6147   18.0106   20.4253 H   0  0  0  0  0  0  0  0  0  0  0  0
   21.1639   19.0994   22.2213 C   0  0  0  0  0  0  0  0  0  0  0  0
   21.0980   20.1731   22.0070 H   0  0  0  0  0  0  0  0  0  0  0  0
   22.1723   18.7996   21.9045 H   0  0  0  0  0  0  0  0  0  0  0  0
   21.0688   18.8591   23.7501 C   0  0  0  0  0  0  0  0  0  0  0  0
   21.2393   17.7938   23.9548 H   0  0  0  0  0  0  0  0  0  0  0  0
   21.8916   19.4018   24.2358 H   0  0  0  0  0  0  0  0  0  0  0  0
   19.7285   19.3100   24.3819 C   0  0  0  0  0  0  0  0  0  0  0  0
   18.9180   18.6536   24.0414 H   0  0  0  0  0  0  0  0  0  0  0  0
   19.4939   20.3209   24.0235 H   0  0  0  0  0  0  0  0  0  0  0  0
   19.7490   19.3294   25.9271 C   0  0  2  0  0  0  0  0  0  0  0  0
   20.5843   19.9577   26.2513 H   0  0  0  0  0  0  0  0  0  0  0  0
   19.9392   17.9220   26.5207 C   0  0  0  0  0  0  0  0  0  0  0  0
   20.9112   17.4997   26.2407 H   0  0  0  0  0  0  0  0  0  0  0  0
   19.9039   17.9570   27.6165 H   0  0  0  0  0  0  0  0  0  0  0  0
   19.1544   17.2369   26.1766 H   0  0  0  0  0  0  0  0  0  0  0  0
   18.5023   19.9633   26.4786 N   0  3  0  0  0  0  0  0  0  0  0  0
   18.5300   20.0142   27.5010 H   0  0  0  0  0  0  0  0  0  0  0  0
   17.6668   19.4308   26.2218 H   0  0  0  0  0  0  0  0  0  0  0  0
   18.3788   20.9182   26.1296 H   0  0  0  0  0  0  0  0  0  0  0  0
  1  2  1  0  0  0  0
  1  3  1  0  0  0  0
  1  4  1  0  0  0  0
  1  5  1  0  0  0  0
  5  6  1  0  0  0  0
  5  7  1  0  0  0  0
  5  8  1  0  0  0  0
  8  9  1  0  0  0  0
  8 10  1  0  0  0  0
  8 11  1  0  0  0  0
 11 12  1  0  0  0  0
 11 13  1  0  0  0  0
 11 14  1  0  0  0  0
 14 15  1  0  0  0  0
 14 16  1  0  0  0  0
 14 17  1  0  0  0  0
 17 18  1  0  0  0  0
 17 19  1  0  0  0  0
 17 20  1  0  0  0  0
 20 21  1  0  0  0  0
 20 22  1  0  0  0  0
 22 23  1  0  0  0  0
 22 24  1  0  0  0  0
 22 25  1  0  0  0  0
 20 26  1  0  0  0  0
 26 27  1  0  0  0  0
 26 28  1  0  0  0  0
 26 29  1  0  0  0  0
M  END
> <VM2 Rank>
134

> <Conf_Id>
1246

> <Probability>
0.01

> <Sum Probability>
99.88

> <Delta G>
4.415

> <G>
38.117

> <E>
0.313

> <-TS>
37.804

> <U+W>
-23.831

> <U>
28.791

> <W>
-52.622

> <W(PB)>
-55.067

> <W(SA)>
2.445

> <Valence>
7.360

> <Coulomb>
20.134

> <VdW>
1.296

> <VdW6>
-10.373

> <VdW12>
11.669

> <Bond>
0.334

> <Angle>
2.248

> <Pdih>
4.779

> <Idih>
0.000

> <Tether>
0.000

$$$$
VeraChem MOL file


 29 28  0  0  0  0  0  0  0  0999 V2000     
   19.1107   20.6805   20.3747 C   0  0  0  0  0  0  0  0  0  0  0  0
   18.1375   20.2063   20.1924 H   0  0  0  0  0  0  0  0  0  0  0  0
   18.9429   21.7585   20.4965 H   0  0  0  0  0  0  0  0  0  0  0  0
   19.7343   20.5354   19.4829 H   0  0  0  0  0  0  0  0  0  0  0  0
   19.7886   20.0895   21.6288 C   0  0  0  0  0  0  0  0  0  0  0  0
   19.1575   20.2949   22.5000 H   0  0  0  0  0  0  0  0  0  0  0  0
   20.7435   20.6054   21.8006 H   0  0  0  0  0  0  0  0  0  0  0  0
   20.0369   18.5695   21.4777 C   0  0  0  0  0  0  0  0  0  0  0  0
   19.0880   18.0430   21.3066 H   0  0  0  0  0  0  0  0  0  0  0  0
   20.6366   18.4136   20.5702 H   0  0  0  0  0  0  0  0  0  0  0  0
   20.7946   17.9302   22.6710 C   0  0  0  0  0  0  0  0  0  0  0  0
   21.5144   18.6422   23.0959 H   0  0  0  0  0  0  0  0  0  0  0  0
   21.4036   17.1057   22.2750 H   0  0  0  0  0  0  0  0  0  0  0  0
   19.8868   17.3333   23.7801 C   0  0  0  0  0  0  0  0  0  0  0  0
   19.2242   16.5804   23.3317 H   0  0  0  0  0  0  0  0  0  0  0  0
   20.5170   16.7787   24.4881 H   0  0  0  0  0  0  0  0  0  0  0  0
   19.0210   18.3528   24.5648 C   0  0  0  0  0  0  0  0  0  0  0  0
   18.4729   17.8186   25.3521 H   0  0  0  0  0  0  0  0  0  0  0  0
   18.2529   18.7543   23.8927 H   0  0  0  0  0  0  0  0  0  0  0  0
   19.8091   19.5217   25.2013 C   0  0  2  0  0  0  0  0  0  0  0  0
   20.3682   20.0315   24.4114 H   0  0  0  0  0  0  0  0  0  0  0  0
   20.8084   19.0326   26.2645 C   0  0  0  0  0  0  0  0  0  0  0  0
   21.5752   18.3862   25.8218 H   0  0  0  0  0  0  0  0  0  0  0  0
   21.3263   19.8814   26.7278 H   0  0  0  0  0  0  0  0  0  0  0  0
   20.3003   18.4697   27.0573 H   0  0  0  0  0  0  0  0  0  0  0  0
   18.8799   20.5459   25.7911 N   0  3  0  0  0  0  0  0  0  0  0  0
   19.3968   21.3408   26.1781 H   0  0  0  0  0  0  0  0  0  0  0  0
   18.3204   20.1480   26.5504 H   0  0  0  0  0  0  0  0  0  0  0  0
   18.2301   20.9154   25.0914 H   0  0  0  0  0  0  0  0  0  0  0  0
  1  2  1  0  0  0  0
  1  3  1  0  0  0  0
  1  4  1  0  0  0  0
  1  5  1  0  0  0  0
  5  6  1  0  0  0  0
  5  7  1  0  0  0  0
  5  8  1  0  0  0  0
  8  9  1  0  0  0  0
  8 10  1  0  0  0  0
  8 11  1  0  0  0  0
 11 12  1  0  0  0  0
 11 13  1  0  0  0  0
 11 14  1  0  0  0  0
 14 15  1  0  0  0  0
 14 16  1  0  0  0  0
 14 17  1  0  0  0  0
 17 18  1  0  0  0  0
 17 19  1  0  0  0  0
 17 20  1  0  0  0  0
 20 21  1  0  0  0  0
 20 22  1  0  0  0  0
 22 23  1  0  0  0  0
 22 24  1  0  0  0  0
 22 25  1  0  0  0  0
 20 26  1  0  0  0  0
 26 27  1  0  0  0  0
 26 28  1  0  0  0  0
 26 29  1  0  0  0  0
M  END
> <VM2 Rank>
135

> <Conf_Id>
267

> <Probability>
0.01

> <Sum Probability>
99.88

> <Delta G>
4.483

> <G>
38.185

> <E>
-0.111

> <-TS>
38.296

> <U+W>
-24.256

> <U>
28.796

> <W>
-53.052

> <W(PB)>
-55.454

> <W(SA)>
2.402

> <Valence>
6.976

> <Coulomb>
21.302

> <VdW>
0.518

> <VdW6>
-11.513

> <VdW12>
12.032

> <Bond>
0.321

> <Angle>
2.483

> <Pdih>
4.173

> <Idih>
0.000

> <Tether>
0.000

$$$$
VeraChem MOL file


 29 28  0  0  0  0  0  0  0  0999 V2000     
   18.0536   19.5320   21.4931 C   0  0  0  0  0  0  0  0  0  0  0  0
   17.6032   18.5327   21.5505 H   0  0  0  0  0  0  0  0  0  0  0  0
   18.2068   19.8957   22.5138 H   0  0  0  0  0  0  0  0  0  0  0  0
   17.3252   20.1981   21.0129 H   0  0  0  0  0  0  0  0  0  0  0  0
   19.3699   19.5006   20.6825 C   0  0  0  0  0  0  0  0  0  0  0  0
   19.8000   20.5095   20.6150 H   0  0  0  0  0  0  0  0  0  0  0  0
   19.1220   19.2091   19.6523 H   0  0  0  0  0  0  0  0  0  0  0  0
   20.4217   18.5020   21.2318 C   0  0  0  0  0  0  0  0  0  0  0  0
   19.9273   17.6288   21.6771 H   0  0  0  0  0  0  0  0  0  0  0  0
   20.9860   18.1076   20.3755 H   0  0  0  0  0  0  0  0  0  0  0  0
   21.4558   19.1133   22.2157 C   0  0  0  0  0  0  0  0  0  0  0  0
   21.9912   19.9264   21.7063 H   0  0  0  0  0  0  0  0  0  0  0  0
   22.2164   18.3526   22.4392 H   0  0  0  0  0  0  0  0  0  0  0  0
   20.8893   19.6528   23.5521 C   0  0  0  0  0  0  0  0  0  0  0  0
   21.7207   20.0791   24.1305 H   0  0  0  0  0  0  0  0  0  0  0  0
   20.2067   20.4867   23.3509 H   0  0  0  0  0  0  0  0  0  0  0  0
   20.1948   18.5632   24.4086 C   0  0  0  0  0  0  0  0  0  0  0  0
   20.8881   17.7217   24.5389 H   0  0  0  0  0  0  0  0  0  0  0  0
   19.3176   18.1661   23.8834 H   0  0  0  0  0  0  0  0  0  0  0  0
   19.7680   19.0766   25.8004 C   0  0  2  0  0  0  0  0  0  0  0  0
   20.6519   19.4824   26.3020 H   0  0  0  0  0  0  0  0  0  0  0  0
   19.2179   17.9207   26.6509 C   0  0  0  0  0  0  0  0  0  0  0  0
   18.9469   18.2717   27.6543 H   0  0  0  0  0  0  0  0  0  0  0  0
   18.3255   17.4786   26.1905 H   0  0  0  0  0  0  0  0  0  0  0  0
   19.9698   17.1301   26.7670 H   0  0  0  0  0  0  0  0  0  0  0  0
   18.7648   20.1946   25.7188 N   0  3  0  0  0  0  0  0  0  0  0  0
   18.5145   20.5395   26.6500 H   0  0  0  0  0  0  0  0  0  0  0  0
   17.9014   19.8881   25.2630 H   0  0  0  0  0  0  0  0  0  0  0  0
   19.1330   20.9880   25.1872 H   0  0  0  0  0  0  0  0  0  0  0  0
  1  2  1  0  0  0  0
  1  3  1  0  0  0  0
  1  4  1  0  0  0  0
  1  5  1  0  0  0  0
  5  6  1  0  0  0  0
  5  7  1  0  0  0  0
  5  8  1  0  0  0  0
  8  9  1  0  0  0  0
  8 10  1  0  0  0  0
  8 11  1  0  0  0  0
 11 12  1  0  0  0  0
 11 13  1  0  0  0  0
 11 14  1  0  0  0  0
 14 15  1  0  0  0  0
 14 16  1  0  0  0  0
 14 17  1  0  0  0  0
 17 18  1  0  0  0  0
 17 19  1  0  0  0  0
 17 20  1  0  0  0  0
 20 21  1  0  0  0  0
 20 22  1  0  0  0  0
 22 23  1  0  0  0  0
 22 24  1  0  0  0  0
 22 25  1  0  0  0  0
 20 26  1  0  0  0  0
 26 27  1  0  0  0  0
 26 28  1  0  0  0  0
 26 29  1  0  0  0  0
M  END
> <VM2 Rank>
136

> <Conf_Id>
680

> <Probability>
0.01

> <Sum Probability>
99.89

> <Delta G>
4.507

> <G>
38.209

> <E>
-0.043

> <-TS>
38.252

> <U+W>
-24.188

> <U>
28.509

> <W>
-52.697

> <W(PB)>
-55.107

> <W(SA)>
2.410

> <Valence>
6.730

> <Coulomb>
21.117

> <VdW>
0.663

> <VdW6>
-11.041

> <VdW12>
11.704

> <Bond>
0.322

> <Angle>
2.297

> <Pdih>
4.111

> <Idih>
0.000

> <Tether>
0.000

$$$$
VeraChem MOL file


 29 28  0  0  0  0  0  0  0  0999 V2000     
   18.3412   19.7966   20.9128 C   0  0  0  0  0  0  0  0  0  0  0  0
   18.4902   20.4886   21.7502 H   0  0  0  0  0  0  0  0  0  0  0  0
   18.6213   20.3162   19.9874 H   0  0  0  0  0  0  0  0  0  0  0  0
   17.2692   19.5676   20.8579 H   0  0  0  0  0  0  0  0  0  0  0  0
   19.1638   18.4998   21.0886 C   0  0  0  0  0  0  0  0  0  0  0  0
   18.9184   17.8162   20.2640 H   0  0  0  0  0  0  0  0  0  0  0  0
   18.8622   17.9773   22.0051 H   0  0  0  0  0  0  0  0  0  0  0  0
   20.6934   18.7388   21.0871 C   0  0  0  0  0  0  0  0  0  0  0  0
   21.2022   17.7662   21.1353 H   0  0  0  0  0  0  0  0  0  0  0  0
   20.9777   19.1744   20.1194 H   0  0  0  0  0  0  0  0  0  0  0  0
   21.2440   19.6493   22.2179 C   0  0  0  0  0  0  0  0  0  0  0  0
   20.8215   20.6599   22.1433 H   0  0  0  0  0  0  0  0  0  0  0  0
   22.3206   19.7732   22.0366 H   0  0  0  0  0  0  0  0  0  0  0  0
   21.0686   19.0860   23.6530 C   0  0  0  0  0  0  0  0  0  0  0  0
   21.0909   17.9891   23.6218 H   0  0  0  0  0  0  0  0  0  0  0  0
   21.9385   19.3917   24.2507 H   0  0  0  0  0  0  0  0  0  0  0  0
   19.7917   19.5952   24.3722 C   0  0  0  0  0  0  0  0  0  0  0  0
   18.8914   19.2591   23.8470 H   0  0  0  0  0  0  0  0  0  0  0  0
   19.7833   20.6922   24.3294 H   0  0  0  0  0  0  0  0  0  0  0  0
   19.7049   19.1655   25.8541 C   0  0  2  0  0  0  0  0  0  0  0  0
   20.6308   19.4660   26.3541 H   0  0  0  0  0  0  0  0  0  0  0  0
   19.5395   17.6427   26.0059 C   0  0  0  0  0  0  0  0  0  0  0  0
   18.6538   17.2841   25.4669 H   0  0  0  0  0  0  0  0  0  0  0  0
   20.4152   17.1059   25.6236 H   0  0  0  0  0  0  0  0  0  0  0  0
   19.4282   17.3698   27.0626 H   0  0  0  0  0  0  0  0  0  0  0  0
   18.5888   19.8822   26.5623 N   0  3  0  0  0  0  0  0  0  0  0  0
   18.7015   20.8988   26.5116 H   0  0  0  0  0  0  0  0  0  0  0  0
   18.5524   19.6291   27.5540 H   0  0  0  0  0  0  0  0  0  0  0  0
   17.6785   19.6523   26.1547 H   0  0  0  0  0  0  0  0  0  0  0  0
  1  2  1  0  0  0  0
  1  3  1  0  0  0  0
  1  4  1  0  0  0  0
  1  5  1  0  0  0  0
  5  6  1  0  0  0  0
  5  7  1  0  0  0  0
  5  8  1  0  0  0  0
  8  9  1  0  0  0  0
  8 10  1  0  0  0  0
  8 11  1  0  0  0  0
 11 12  1  0  0  0  0
 11 13  1  0  0  0  0
 11 14  1  0  0  0  0
 14 15  1  0  0  0  0
 14 16  1  0  0  0  0
 14 17  1  0  0  0  0
 17 18  1  0  0  0  0
 17 19  1  0  0  0  0
 17 20  1  0  0  0  0
 20 21  1  0  0  0  0
 20 22  1  0  0  0  0
 22 23  1  0  0  0  0
 22 24  1  0  0  0  0
 22 25  1  0  0  0  0
 20 26  1  0  0  0  0
 26 27  1  0  0  0  0
 26 28  1  0  0  0  0
 26 29  1  0  0  0  0
M  END
> <VM2 Rank>
137

> <Conf_Id>
87

> <Probability>
0.01

> <Sum Probability>
99.90

> <Delta G>
4.509

> <G>
38.211

> <E>
0.010

> <-TS>
38.201

> <U+W>
-24.135

> <U>
28.527

> <W>
-52.661

> <W(PB)>
-55.099

> <W(SA)>
2.438

> <Valence>
7.280

> <Coulomb>
20.271

> <VdW>
0.976

> <VdW6>
-10.955

> <VdW12>
11.931

> <Bond>
0.337

> <Angle>
2.514

> <Pdih>
4.429

> <Idih>
0.000

> <Tether>
0.000

$$$$
VeraChem MOL file


 29 28  0  0  0  0  0  0  0  0999 V2000     
   19.6758   18.0698   19.9620 C   0  0  0  0  0  0  0  0  0  0  0  0
   19.7577   17.3215   20.7600 H   0  0  0  0  0  0  0  0  0  0  0  0
   19.1209   17.6098   19.1342 H   0  0  0  0  0  0  0  0  0  0  0  0
   20.6866   18.3009   19.6013 H   0  0  0  0  0  0  0  0  0  0  0  0
   18.9557   19.3463   20.4524 C   0  0  0  0  0  0  0  0  0  0  0  0
   17.9599   19.0841   20.8362 H   0  0  0  0  0  0  0  0  0  0  0  0
   18.7889   20.0111   19.5934 H   0  0  0  0  0  0  0  0  0  0  0  0
   19.7463   20.1214   21.5339 C   0  0  0  0  0  0  0  0  0  0  0  0
   20.7297   20.4057   21.1349 H   0  0  0  0  0  0  0  0  0  0  0  0
   19.2163   21.0598   21.7482 H   0  0  0  0  0  0  0  0  0  0  0  0
   19.9258   19.3295   22.8511 C   0  0  0  0  0  0  0  0  0  0  0  0
   20.5278   18.4302   22.6662 H   0  0  0  0  0  0  0  0  0  0  0  0
   18.9398   18.9992   23.1985 H   0  0  0  0  0  0  0  0  0  0  0  0
   20.6096   20.1847   23.9430 C   0  0  0  0  0  0  0  0  0  0  0  0
   21.5128   20.6404   23.5141 H   0  0  0  0  0  0  0  0  0  0  0  0
   19.9570   21.0243   24.2173 H   0  0  0  0  0  0  0  0  0  0  0  0
   21.0368   19.4028   25.2177 C   0  0  0  0  0  0  0  0  0  0  0  0
   21.5517   20.1130   25.8779 H   0  0  0  0  0  0  0  0  0  0  0  0
   21.7954   18.6544   24.9533 H   0  0  0  0  0  0  0  0  0  0  0  0
   19.9158   18.7317   26.0532 C   0  0  2  0  0  0  0  0  0  0  0  0
   20.2989   18.6412   27.0744 H   0  0  0  0  0  0  0  0  0  0  0  0
   19.5989   17.3002   25.5821 C   0  0  0  0  0  0  0  0  0  0  0  0
   20.5092   16.6884   25.5598 H   0  0  0  0  0  0  0  0  0  0  0  0
   18.8971   16.8184   26.2737 H   0  0  0  0  0  0  0  0  0  0  0  0
   19.1500   17.2762   24.5848 H   0  0  0  0  0  0  0  0  0  0  0  0
   18.6712   19.5696   26.1586 N   0  3  0  0  0  0  0  0  0  0  0  0
   18.2484   19.7168   25.2388 H   0  0  0  0  0  0  0  0  0  0  0  0
   18.8749   20.4912   26.5559 H   0  0  0  0  0  0  0  0  0  0  0  0
   17.9691   19.1252   26.7571 H   0  0  0  0  0  0  0  0  0  0  0  0
  1  2  1  0  0  0  0
  1  3  1  0  0  0  0
  1  4  1  0  0  0  0
  1  5  1  0  0  0  0
  5  6  1  0  0  0  0
  5  7  1  0  0  0  0
  5  8  1  0  0  0  0
  8  9  1  0  0  0  0
  8 10  1  0  0  0  0
  8 11  1  0  0  0  0
 11 12  1  0  0  0  0
 11 13  1  0  0  0  0
 11 14  1  0  0  0  0
 14 15  1  0  0  0  0
 14 16  1  0  0  0  0
 14 17  1  0  0  0  0
 17 18  1  0  0  0  0
 17 19  1  0  0  0  0
 17 20  1  0  0  0  0
 20 21  1  0  0  0  0
 20 22  1  0  0  0  0
 22 23  1  0  0  0  0
 22 24  1  0  0  0  0
 22 25  1  0  0  0  0
 20 26  1  0  0  0  0
 26 27  1  0  0  0  0
 26 28  1  0  0  0  0
 26 29  1  0  0  0  0
M  END
> <VM2 Rank>
138

> <Conf_Id>
1355

> <Probability>
0.01

> <Sum Probability>
99.90

> <Delta G>
4.518

> <G>
38.220

> <E>
0.211

> <-TS>
38.008

> <U+W>
-23.933

> <U>
28.480

> <W>
-52.413

> <W(PB)>
-54.832

> <W(SA)>
2.419

> <Valence>
6.764

> <Coulomb>
20.530

> <VdW>
1.187

> <VdW6>
-10.594

> <VdW12>
11.780

> <Bond>
0.333

> <Angle>
2.588

> <Pdih>
3.843

> <Idih>
0.000

> <Tether>
0.000

$$$$
VeraChem MOL file


 29 28  0  0  0  0  0  0  0  0999 V2000     
   20.3145   20.9735   20.8771 C   0  0  0  0  0  0  0  0  0  0  0  0
   19.8671   21.6684   21.5997 H   0  0  0  0  0  0  0  0  0  0  0  0
   21.3118   21.3522   20.6183 H   0  0  0  0  0  0  0  0  0  0  0  0
   19.7023   20.9864   19.9659 H   0  0  0  0  0  0  0  0  0  0  0  0
   20.4078   19.5490   21.4628 C   0  0  0  0  0  0  0  0  0  0  0  0
   21.0590   19.5692   22.3453 H   0  0  0  0  0  0  0  0  0  0  0  0
   20.8884   18.8843   20.7315 H   0  0  0  0  0  0  0  0  0  0  0  0
   19.0122   18.9926   21.8311 C   0  0  0  0  0  0  0  0  0  0  0  0
   18.5096   19.6590   22.5430 H   0  0  0  0  0  0  0  0  0  0  0  0
   18.3838   18.9973   20.9298 H   0  0  0  0  0  0  0  0  0  0  0  0
   19.0479   17.5477   22.3887 C   0  0  0  0  0  0  0  0  0  0  0  0
   19.4537   16.8831   21.6136 H   0  0  0  0  0  0  0  0  0  0  0  0
   18.0152   17.2116   22.5554 H   0  0  0  0  0  0  0  0  0  0  0  0
   19.8596   17.3344   23.6954 C   0  0  0  0  0  0  0  0  0  0  0  0
   19.8100   16.2632   23.9347 H   0  0  0  0  0  0  0  0  0  0  0  0
   20.9231   17.5385   23.5247 H   0  0  0  0  0  0  0  0  0  0  0  0
   19.3261   18.1162   24.9275 C   0  0  0  0  0  0  0  0  0  0  0  0
   19.5970   17.5685   25.8399 H   0  0  0  0  0  0  0  0  0  0  0  0
   18.2287   18.1145   24.8953 H   0  0  0  0  0  0  0  0  0  0  0  0
   19.8380   19.5705   25.0611 C   0  0  2  0  0  0  0  0  0  0  0  0
   19.7267   20.0750   24.0987 H   0  0  0  0  0  0  0  0  0  0  0  0
   21.3219   19.6220   25.4677 C   0  0  0  0  0  0  0  0  0  0  0  0
   21.6579   20.6614   25.5681 H   0  0  0  0  0  0  0  0  0  0  0  0
   21.4873   19.1182   26.4282 H   0  0  0  0  0  0  0  0  0  0  0  0
   21.9628   19.1442   24.7185 H   0  0  0  0  0  0  0  0  0  0  0  0
   19.0079   20.3500   26.0428 N   0  3  0  0  0  0  0  0  0  0  0  0
   18.0206   20.3685   25.7714 H   0  0  0  0  0  0  0  0  0  0  0  0
   19.3239   21.3216   26.1116 H   0  0  0  0  0  0  0  0  0  0  0  0
   19.0613   19.9447   26.9812 H   0  0  0  0  0  0  0  0  0  0  0  0
  1  2  1  0  0  0  0
  1  3  1  0  0  0  0
  1  4  1  0  0  0  0
  1  5  1  0  0  0  0
  5  6  1  0  0  0  0
  5  7  1  0  0  0  0
  5  8  1  0  0  0  0
  8  9  1  0  0  0  0
  8 10  1  0  0  0  0
  8 11  1  0  0  0  0
 11 12  1  0  0  0  0
 11 13  1  0  0  0  0
 11 14  1  0  0  0  0
 14 15  1  0  0  0  0
 14 16  1  0  0  0  0
 14 17  1  0  0  0  0
 17 18  1  0  0  0  0
 17 19  1  0  0  0  0
 17 20  1  0  0  0  0
 20 21  1  0  0  0  0
 20 22  1  0  0  0  0
 22 23  1  0  0  0  0
 22 24  1  0  0  0  0
 22 25  1  0  0  0  0
 20 26  1  0  0  0  0
 26 27  1  0  0  0  0
 26 28  1  0  0  0  0
 26 29  1  0  0  0  0
M  END
> <VM2 Rank>
139

> <Conf_Id>
1048

> <Probability>
0.01

> <Sum Probability>
99.91

> <Delta G>
4.529

> <G>
38.231

> <E>
-0.345

> <-TS>
38.576

> <U+W>
-24.489

> <U>
28.285

> <W>
-52.774

> <W(PB)>
-55.159

> <W(SA)>
2.385

> <Valence>
6.918

> <Coulomb>
20.924

> <VdW>
0.442

> <VdW6>
-11.731

> <VdW12>
12.173

> <Bond>
0.331

> <Angle>
2.609

> <Pdih>
3.978

> <Idih>
0.000

> <Tether>
0.000

$$$$
VeraChem MOL file


 29 28  0  0  0  0  0  0  0  0999 V2000     
   20.3498   19.4194   19.5896 C   0  0  0  0  0  0  0  0  0  0  0  0
   19.3425   19.5754   19.1823 H   0  0  0  0  0  0  0  0  0  0  0  0
   20.7316   20.3850   19.9436 H   0  0  0  0  0  0  0  0  0  0  0  0
   20.9976   19.0908   18.7666 H   0  0  0  0  0  0  0  0  0  0  0  0
   20.3351   18.3652   20.7196 C   0  0  0  0  0  0  0  0  0  0  0  0
   21.3471   18.2523   21.1329 H   0  0  0  0  0  0  0  0  0  0  0  0
   20.0682   17.3899   20.2892 H   0  0  0  0  0  0  0  0  0  0  0  0
   19.3390   18.6942   21.8575 C   0  0  0  0  0  0  0  0  0  0  0  0
   18.3265   18.7901   21.4420 H   0  0  0  0  0  0  0  0  0  0  0  0
   19.3093   17.8373   22.5418 H   0  0  0  0  0  0  0  0  0  0  0  0
   19.7033   19.9808   22.6415 C   0  0  0  0  0  0  0  0  0  0  0  0
   19.6686   20.8385   21.9573 H   0  0  0  0  0  0  0  0  0  0  0  0
   20.7381   19.9279   23.0026 H   0  0  0  0  0  0  0  0  0  0  0  0
   18.7421   20.2767   23.8198 C   0  0  0  0  0  0  0  0  0  0  0  0
   18.9916   21.2628   24.2355 H   0  0  0  0  0  0  0  0  0  0  0  0
   17.7201   20.3692   23.4273 H   0  0  0  0  0  0  0  0  0  0  0  0
   18.7418   19.2395   24.9749 C   0  0  0  0  0  0  0  0  0  0  0  0
   18.4082   18.2567   24.6191 H   0  0  0  0  0  0  0  0  0  0  0  0
   17.9743   19.5612   25.6912 H   0  0  0  0  0  0  0  0  0  0  0  0
   20.0965   19.1223   25.7159 C   0  0  2  0  0  0  0  0  0  0  0  0
   20.6690   20.0360   25.5292 H   0  0  0  0  0  0  0  0  0  0  0  0
   20.9182   17.9149   25.2288 C   0  0  0  0  0  0  0  0  0  0  0  0
   20.3855   16.9736   25.4130 H   0  0  0  0  0  0  0  0  0  0  0  0
   21.1330   17.9777   24.1572 H   0  0  0  0  0  0  0  0  0  0  0  0
   21.8806   17.8670   25.7530 H   0  0  0  0  0  0  0  0  0  0  0  0
   19.9102   19.0430   27.2064 N   0  3  0  0  0  0  0  0  0  0  0  0
   19.4081   19.8597   27.5670 H   0  0  0  0  0  0  0  0  0  0  0  0
   20.8098   18.9991   27.6937 H   0  0  0  0  0  0  0  0  0  0  0  0
   19.3773   18.2106   27.4728 H   0  0  0  0  0  0  0  0  0  0  0  0
  1  2  1  0  0  0  0
  1  3  1  0  0  0  0
  1  4  1  0  0  0  0
  1  5  1  0  0  0  0
  5  6  1  0  0  0  0
  5  7  1  0  0  0  0
  5  8  1  0  0  0  0
  8  9  1  0  0  0  0
  8 10  1  0  0  0  0
  8 11  1  0  0  0  0
 11 12  1  0  0  0  0
 11 13  1  0  0  0  0
 11 14  1  0  0  0  0
 14 15  1  0  0  0  0
 14 16  1  0  0  0  0
 14 17  1  0  0  0  0
 17 18  1  0  0  0  0
 17 19  1  0  0  0  0
 17 20  1  0  0  0  0
 20 21  1  0  0  0  0
 20 22  1  0  0  0  0
 22 23  1  0  0  0  0
 22 24  1  0  0  0  0
 22 25  1  0  0  0  0
 20 26  1  0  0  0  0
 26 27  1  0  0  0  0
 26 28  1  0  0  0  0
 26 29  1  0  0  0  0
M  END
> <VM2 Rank>
140

> <Conf_Id>
223

> <Probability>
0.00

> <Sum Probability>
99.91

> <Delta G>
4.604

> <G>
38.306

> <E>
0.177

> <-TS>
38.130

> <U+W>
-23.968

> <U>
28.515

> <W>
-52.483

> <W(PB)>
-54.894

> <W(SA)>
2.410

> <Valence>
7.495

> <Coulomb>
19.986

> <VdW>
1.034

> <VdW6>
-10.885

> <VdW12>
11.919

> <Bond>
0.315

> <Angle>
2.267

> <Pdih>
4.913

> <Idih>
0.000

> <Tether>
0.000

$$$$
VeraChem MOL file


 29 28  0  0  0  0  0  0  0  0999 V2000     
   19.8430   20.3538   20.1186 C   0  0  0  0  0  0  0  0  0  0  0  0
   18.8209   20.7122   19.9403 H   0  0  0  0  0  0  0  0  0  0  0  0
   20.2669   20.9230   20.9553 H   0  0  0  0  0  0  0  0  0  0  0  0
   20.4404   20.5832   19.2268 H   0  0  0  0  0  0  0  0  0  0  0  0
   19.8570   18.8351   20.4037 C   0  0  0  0  0  0  0  0  0  0  0  0
   20.8852   18.5047   20.6019 H   0  0  0  0  0  0  0  0  0  0  0  0
   19.5425   18.3023   19.4955 H   0  0  0  0  0  0  0  0  0  0  0  0
   18.9226   18.4160   21.5676 C   0  0  0  0  0  0  0  0  0  0  0  0
   17.8842   18.6259   21.2767 H   0  0  0  0  0  0  0  0  0  0  0  0
   18.9836   17.3265   21.6959 H   0  0  0  0  0  0  0  0  0  0  0  0
   19.2006   19.1012   22.9310 C   0  0  0  0  0  0  0  0  0  0  0  0
   18.4414   18.7425   23.6353 H   0  0  0  0  0  0  0  0  0  0  0  0
   19.0557   20.1857   22.8412 H   0  0  0  0  0  0  0  0  0  0  0  0
   20.6101   18.8011   23.5003 C   0  0  0  0  0  0  0  0  0  0  0  0
   20.7273   17.7190   23.6454 H   0  0  0  0  0  0  0  0  0  0  0  0
   21.3653   19.0853   22.7569 H   0  0  0  0  0  0  0  0  0  0  0  0
   20.9546   19.5573   24.8146 C   0  0  0  0  0  0  0  0  0  0  0  0
   20.9511   20.6381   24.6222 H   0  0  0  0  0  0  0  0  0  0  0  0
   21.9926   19.3125   25.0756 H   0  0  0  0  0  0  0  0  0  0  0  0
   20.0814   19.2654   26.0618 C   0  0  2  0  0  0  0  0  0  0  0  0
   20.6092   19.6899   26.9214 H   0  0  0  0  0  0  0  0  0  0  0  0
   19.9150   17.7588   26.3255 C   0  0  0  0  0  0  0  0  0  0  0  0
   19.4183   17.5900   27.2887 H   0  0  0  0  0  0  0  0  0  0  0  0
   19.3118   17.2756   25.5477 H   0  0  0  0  0  0  0  0  0  0  0  0
   20.8919   17.2609   26.3627 H   0  0  0  0  0  0  0  0  0  0  0  0
   18.7516   19.9673   26.0309 N   0  3  0  0  0  0  0  0  0  0  0  0
   18.8654   20.9798   25.9283 H   0  0  0  0  0  0  0  0  0  0  0  0
   18.2240   19.8050   26.8934 H   0  0  0  0  0  0  0  0  0  0  0  0
   18.1768   19.6412   25.2514 H   0  0  0  0  0  0  0  0  0  0  0  0
  1  2  1  0  0  0  0
  1  3  1  0  0  0  0
  1  4  1  0  0  0  0
  1  5  1  0  0  0  0
  5  6  1  0  0  0  0
  5  7  1  0  0  0  0
  5  8  1  0  0  0  0
  8  9  1  0  0  0  0
  8 10  1  0  0  0  0
  8 11  1  0  0  0  0
 11 12  1  0  0  0  0
 11 13  1  0  0  0  0
 11 14  1  0  0  0  0
 14 15  1  0  0  0  0
 14 16  1  0  0  0  0
 14 17  1  0  0  0  0
 17 18  1  0  0  0  0
 17 19  1  0  0  0  0
 17 20  1  0  0  0  0
 20 21  1  0  0  0  0
 20 22  1  0  0  0  0
 22 23  1  0  0  0  0
 22 24  1  0  0  0  0
 22 25  1  0  0  0  0
 20 26  1  0  0  0  0
 26 27  1  0  0  0  0
 26 28  1  0  0  0  0
 26 29  1  0  0  0  0
M  END
> <VM2 Rank>
141

> <Conf_Id>
895

> <Probability>
0.00

> <Sum Probability>
99.92

> <Delta G>
4.606

> <G>
38.308

> <E>
-0.028

> <-TS>
38.336

> <U+W>
-24.172

> <U>
28.517

> <W>
-52.689

> <W(PB)>
-55.069

> <W(SA)>
2.380

> <Valence>
6.153

> <Coulomb>
21.300

> <VdW>
1.063

> <VdW6>
-11.581

> <VdW12>
12.644

> <Bond>
0.386

> <Angle>
2.989

> <Pdih>
2.778

> <Idih>
0.000

> <Tether>
0.000

$$$$
VeraChem MOL file


 29 28  0  0  0  0  0  0  0  0999 V2000     
   19.9897   18.1517   19.6970 C   0  0  0  0  0  0  0  0  0  0  0  0
   20.4747   17.2663   20.1283 H   0  0  0  0  0  0  0  0  0  0  0  0
   19.3450   17.8159   18.8745 H   0  0  0  0  0  0  0  0  0  0  0  0
   20.7702   18.7963   19.2720 H   0  0  0  0  0  0  0  0  0  0  0  0
   19.1660   18.9068   20.7615 C   0  0  0  0  0  0  0  0  0  0  0  0
   18.3741   18.2479   21.1443 H   0  0  0  0  0  0  0  0  0  0  0  0
   18.6654   19.7659   20.2934 H   0  0  0  0  0  0  0  0  0  0  0  0
   20.0509   19.3916   21.9307 C   0  0  0  0  0  0  0  0  0  0  0  0
   20.5560   18.5273   22.3796 H   0  0  0  0  0  0  0  0  0  0  0  0
   20.8385   20.0531   21.5444 H   0  0  0  0  0  0  0  0  0  0  0  0
   19.2250   20.1444   23.0014 C   0  0  0  0  0  0  0  0  0  0  0  0
   18.4274   19.5013   23.3908 H   0  0  0  0  0  0  0  0  0  0  0  0
   18.7129   20.9887   22.5194 H   0  0  0  0  0  0  0  0  0  0  0  0
   20.0820   20.7016   24.1652 C   0  0  0  0  0  0  0  0  0  0  0  0
   20.7900   21.4313   23.7485 H   0  0  0  0  0  0  0  0  0  0  0  0
   19.4353   21.2821   24.8365 H   0  0  0  0  0  0  0  0  0  0  0  0
   20.8940   19.6642   24.9961 C   0  0  0  0  0  0  0  0  0  0  0  0
   21.4833   20.2320   25.7279 H   0  0  0  0  0  0  0  0  0  0  0  0
   21.6390   19.1684   24.3611 H   0  0  0  0  0  0  0  0  0  0  0  0
   20.0927   18.6014   25.7929 C   0  0  2  0  0  0  0  0  0  0  0  0
   20.7377   18.2789   26.6161 H   0  0  0  0  0  0  0  0  0  0  0  0
   19.7820   17.3390   24.9685 C   0  0  0  0  0  0  0  0  0  0  0  0
   20.6978   16.9266   24.5275 H   0  0  0  0  0  0  0  0  0  0  0  0
   19.3493   16.5625   25.6112 H   0  0  0  0  0  0  0  0  0  0  0  0
   19.0706   17.5319   24.1602 H   0  0  0  0  0  0  0  0  0  0  0  0
   18.8536   19.1552   26.4407 N   0  3  0  0  0  0  0  0  0  0  0  0
   18.3766   18.4464   27.0052 H   0  0  0  0  0  0  0  0  0  0  0  0
   18.1906   19.4908   25.7377 H   0  0  0  0  0  0  0  0  0  0  0  0
   19.0748   19.9421   27.0575 H   0  0  0  0  0  0  0  0  0  0  0  0
  1  2  1  0  0  0  0
  1  3  1  0  0  0  0
  1  4  1  0  0  0  0
  1  5  1  0  0  0  0
  5  6  1  0  0  0  0
  5  7  1  0  0  0  0
  5  8  1  0  0  0  0
  8  9  1  0  0  0  0
  8 10  1  0  0  0  0
  8 11  1  0  0  0  0
 11 12  1  0  0  0  0
 11 13  1  0  0  0  0
 11 14  1  0  0  0  0
 14 15  1  0  0  0  0
 14 16  1  0  0  0  0
 14 17  1  0  0  0  0
 17 18  1  0  0  0  0
 17 19  1  0  0  0  0
 17 20  1  0  0  0  0
 20 21  1  0  0  0  0
 20 22  1  0  0  0  0
 22 23  1  0  0  0  0
 22 24  1  0  0  0  0
 22 25  1  0  0  0  0
 20 26  1  0  0  0  0
 26 27  1  0  0  0  0
 26 28  1  0  0  0  0
 26 29  1  0  0  0  0
M  END
> <VM2 Rank>
142

> <Conf_Id>
295

> <Probability>
0.00

> <Sum Probability>
99.92

> <Delta G>
4.612

> <G>
38.314

> <E>
-0.135

> <-TS>
38.449

> <U+W>
-24.280

> <U>
28.206

> <W>
-52.486

> <W(PB)>
-54.876

> <W(SA)>
2.391

> <Valence>
6.867

> <Coulomb>
20.598

> <VdW>
0.741

> <VdW6>
-11.268

> <VdW12>
12.008

> <Bond>
0.355

> <Angle>
2.996

> <Pdih>
3.516

> <Idih>
0.000

> <Tether>
0.000

$$$$
VeraChem MOL file


 29 28  0  0  0  0  0  0  0  0999 V2000     
   18.9256   19.6474   19.8131 C   0  0  0  0  0  0  0  0  0  0  0  0
   18.5927   18.7014   19.3669 H   0  0  0  0  0  0  0  0  0  0  0  0
   18.2198   19.9205   20.6074 H   0  0  0  0  0  0  0  0  0  0  0  0
   18.8682   20.4231   19.0387 H   0  0  0  0  0  0  0  0  0  0  0  0
   20.3682   19.5284   20.3543 C   0  0  0  0  0  0  0  0  0  0  0  0
   20.6721   20.4791   20.8124 H   0  0  0  0  0  0  0  0  0  0  0  0
   21.0512   19.3711   19.5080 H   0  0  0  0  0  0  0  0  0  0  0  0
   20.5544   18.3646   21.3608 C   0  0  0  0  0  0  0  0  0  0  0  0
   20.3564   17.4148   20.8453 H   0  0  0  0  0  0  0  0  0  0  0  0
   21.6092   18.3265   21.6661 H   0  0  0  0  0  0  0  0  0  0  0  0
   19.6661   18.4364   22.6295 C   0  0  0  0  0  0  0  0  0  0  0  0
   19.8698   17.5482   23.2393 H   0  0  0  0  0  0  0  0  0  0  0  0
   18.6074   18.3645   22.3472 H   0  0  0  0  0  0  0  0  0  0  0  0
   19.8935   19.7192   23.4699 C   0  0  0  0  0  0  0  0  0  0  0  0
   20.9657   19.8737   23.6533 H   0  0  0  0  0  0  0  0  0  0  0  0
   19.5574   20.5839   22.8825 H   0  0  0  0  0  0  0  0  0  0  0  0
   19.1176   19.7179   24.8137 C   0  0  0  0  0  0  0  0  0  0  0  0
   18.2195   19.0909   24.7347 H   0  0  0  0  0  0  0  0  0  0  0  0
   18.7544   20.7387   24.9917 H   0  0  0  0  0  0  0  0  0  0  0  0
   19.9554   19.3006   26.0463 C   0  0  2  0  0  0  0  0  0  0  0  0
   20.8145   19.9747   26.1171 H   0  0  0  0  0  0  0  0  0  0  0  0
   20.4837   17.8595   25.9499 C   0  0  0  0  0  0  0  0  0  0  0  0
   21.0090   17.5777   26.8707 H   0  0  0  0  0  0  0  0  0  0  0  0
   19.6656   17.1458   25.7924 H   0  0  0  0  0  0  0  0  0  0  0  0
   21.1998   17.7573   25.1262 H   0  0  0  0  0  0  0  0  0  0  0  0
   19.1716   19.4819   27.3165 N   0  3  0  0  0  0  0  0  0  0  0  0
   18.3451   18.8785   27.3349 H   0  0  0  0  0  0  0  0  0  0  0  0
   18.8502   20.4480   27.4268 H   0  0  0  0  0  0  0  0  0  0  0  0
   19.7358   19.2527   28.1398 H   0  0  0  0  0  0  0  0  0  0  0  0
  1  2  1  0  0  0  0
  1  3  1  0  0  0  0
  1  4  1  0  0  0  0
  1  5  1  0  0  0  0
  5  6  1  0  0  0  0
  5  7  1  0  0  0  0
  5  8  1  0  0  0  0
  8  9  1  0  0  0  0
  8 10  1  0  0  0  0
  8 11  1  0  0  0  0
 11 12  1  0  0  0  0
 11 13  1  0  0  0  0
 11 14  1  0  0  0  0
 14 15  1  0  0  0  0
 14 16  1  0  0  0  0
 14 17  1  0  0  0  0
 17 18  1  0  0  0  0
 17 19  1  0  0  0  0
 17 20  1  0  0  0  0
 20 21  1  0  0  0  0
 20 22  1  0  0  0  0
 22 23  1  0  0  0  0
 22 24  1  0  0  0  0
 22 25  1  0  0  0  0
 20 26  1  0  0  0  0
 26 27  1  0  0  0  0
 26 28  1  0  0  0  0
 26 29  1  0  0  0  0
M  END
> <VM2 Rank>
143

> <Conf_Id>
1342

> <Probability>
0.00

> <Sum Probability>
99.92

> <Delta G>
4.616

> <G>
38.318

> <E>
0.173

> <-TS>
38.145

> <U+W>
-23.971

> <U>
28.230

> <W>
-52.201

> <W(PB)>
-54.645

> <W(SA)>
2.444

> <Valence>
7.255

> <Coulomb>
19.721

> <VdW>
1.253

> <VdW6>
-10.650

> <VdW12>
11.903

> <Bond>
0.331

> <Angle>
2.253

> <Pdih>
4.671

> <Idih>
0.000

> <Tether>
0.000

$$$$
VeraChem MOL file


 29 28  0  0  0  0  0  0  0  0999 V2000     
   19.3527   18.2658   19.9356 C   0  0  0  0  0  0  0  0  0  0  0  0
   20.2675   17.7356   19.6408 H   0  0  0  0  0  0  0  0  0  0  0  0
   18.8923   17.7215   20.7695 H   0  0  0  0  0  0  0  0  0  0  0  0
   18.6540   18.2271   19.0899 H   0  0  0  0  0  0  0  0  0  0  0  0
   19.6592   19.7314   20.3178 C   0  0  0  0  0  0  0  0  0  0  0  0
   18.7344   20.2344   20.6300 H   0  0  0  0  0  0  0  0  0  0  0  0
   20.0021   20.2661   19.4211 H   0  0  0  0  0  0  0  0  0  0  0  0
   20.7434   19.8690   21.4172 C   0  0  0  0  0  0  0  0  0  0  0  0
   21.6940   19.4821   21.0247 H   0  0  0  0  0  0  0  0  0  0  0  0
   20.9130   20.9363   21.6155 H   0  0  0  0  0  0  0  0  0  0  0  0
   20.4326   19.1504   22.7558 C   0  0  0  0  0  0  0  0  0  0  0  0
   21.2929   19.2997   23.4208 H   0  0  0  0  0  0  0  0  0  0  0  0
   20.3565   18.0676   22.5906 H   0  0  0  0  0  0  0  0  0  0  0  0
   19.1505   19.6677   23.4544 C   0  0  0  0  0  0  0  0  0  0  0  0
   19.2468   20.7457   23.6439 H   0  0  0  0  0  0  0  0  0  0  0  0
   18.2921   19.5476   22.7811 H   0  0  0  0  0  0  0  0  0  0  0  0
   18.8184   18.9402   24.7819 C   0  0  0  0  0  0  0  0  0  0  0  0
   18.6340   17.8747   24.5901 H   0  0  0  0  0  0  0  0  0  0  0  0
   17.8647   19.3432   25.1478 H   0  0  0  0  0  0  0  0  0  0  0  0
   19.8984   19.1145   25.8770 C   0  0  2  0  0  0  0  0  0  0  0  0
   20.5292   19.9654   25.6021 H   0  0  0  0  0  0  0  0  0  0  0  0
   20.7852   17.8622   26.0020 C   0  0  0  0  0  0  0  0  0  0  0  0
   21.5854   18.0270   26.7340 H   0  0  0  0  0  0  0  0  0  0  0  0
   20.1990   16.9947   26.3300 H   0  0  0  0  0  0  0  0  0  0  0  0
   21.2574   17.6073   25.0467 H   0  0  0  0  0  0  0  0  0  0  0  0
   19.2955   19.4546   27.2123 N   0  3  0  0  0  0  0  0  0  0  0  0
   18.7378   20.3125   27.1658 H   0  0  0  0  0  0  0  0  0  0  0  0
   20.0185   19.5995   27.9230 H   0  0  0  0  0  0  0  0  0  0  0  0
   18.6830   18.7062   27.5477 H   0  0  0  0  0  0  0  0  0  0  0  0
  1  2  1  0  0  0  0
  1  3  1  0  0  0  0
  1  4  1  0  0  0  0
  1  5  1  0  0  0  0
  5  6  1  0  0  0  0
  5  7  1  0  0  0  0
  5  8  1  0  0  0  0
  8  9  1  0  0  0  0
  8 10  1  0  0  0  0
  8 11  1  0  0  0  0
 11 12  1  0  0  0  0
 11 13  1  0  0  0  0
 11 14  1  0  0  0  0
 14 15  1  0  0  0  0
 14 16  1  0  0  0  0
 14 17  1  0  0  0  0
 17 18  1  0  0  0  0
 17 19  1  0  0  0  0
 17 20  1  0  0  0  0
 20 21  1  0  0  0  0
 20 22  1  0  0  0  0
 22 23  1  0  0  0  0
 22 24  1  0  0  0  0
 22 25  1  0  0  0  0
 20 26  1  0  0  0  0
 26 27  1  0  0  0  0
 26 28  1  0  0  0  0
 26 29  1  0  0  0  0
M  END
> <VM2 Rank>
144

> <Conf_Id>
927

> <Probability>
0.00

> <Sum Probability>
99.93

> <Delta G>
4.617

> <G>
38.319

> <E>
0.424

> <-TS>
37.895

> <U+W>
-23.720

> <U>
28.495

> <W>
-52.215

> <W(PB)>
-54.650

> <W(SA)>
2.435

> <Valence>
7.352

> <Coulomb>
19.852

> <VdW>
1.291

> <VdW6>
-10.552

> <VdW12>
11.843

> <Bond>
0.310

> <Angle>
2.054

> <Pdih>
4.988

> <Idih>
0.000

> <Tether>
0.000

$$$$
VeraChem MOL file


 29 28  0  0  0  0  0  0  0  0999 V2000     
   18.1954   18.9165   20.4057 C   0  0  0  0  0  0  0  0  0  0  0  0
   17.8892   18.3213   21.2748 H   0  0  0  0  0  0  0  0  0  0  0  0
   17.7537   19.9170   20.4998 H   0  0  0  0  0  0  0  0  0  0  0  0
   17.7654   18.4423   19.5140 H   0  0  0  0  0  0  0  0  0  0  0  0
   19.7342   18.9973   20.2856 C   0  0  0  0  0  0  0  0  0  0  0  0
   19.9896   19.4900   19.3371 H   0  0  0  0  0  0  0  0  0  0  0  0
   20.1540   17.9833   20.2281 H   0  0  0  0  0  0  0  0  0  0  0  0
   20.4029   19.7756   21.4443 C   0  0  0  0  0  0  0  0  0  0  0  0
   21.4739   19.8781   21.2215 H   0  0  0  0  0  0  0  0  0  0  0  0
   19.9963   20.7956   21.4839 H   0  0  0  0  0  0  0  0  0  0  0  0
   20.2349   19.0926   22.8226 C   0  0  0  0  0  0  0  0  0  0  0  0
   20.6039   18.0593   22.7668 H   0  0  0  0  0  0  0  0  0  0  0  0
   19.1690   19.0475   23.0707 H   0  0  0  0  0  0  0  0  0  0  0  0
   20.9911   19.8551   23.9353 C   0  0  0  0  0  0  0  0  0  0  0  0
   22.0241   20.0263   23.6024 H   0  0  0  0  0  0  0  0  0  0  0  0
   20.5523   20.8539   24.0616 H   0  0  0  0  0  0  0  0  0  0  0  0
   21.0543   19.1231   25.3061 C   0  0  0  0  0  0  0  0  0  0  0  0
   21.6590   19.7448   25.9793 H   0  0  0  0  0  0  0  0  0  0  0  0
   21.6168   18.1864   25.1974 H   0  0  0  0  0  0  0  0  0  0  0  0
   19.7111   18.8403   26.0280 C   0  0  2  0  0  0  0  0  0  0  0  0
   19.9400   18.7652   27.0956 H   0  0  0  0  0  0  0  0  0  0  0  0
   19.0914   17.4899   25.6231 C   0  0  0  0  0  0  0  0  0  0  0  0
   18.2138   17.2722   26.2441 H   0  0  0  0  0  0  0  0  0  0  0  0
   18.7701   17.4716   24.5777 H   0  0  0  0  0  0  0  0  0  0  0  0
   19.8088   16.6735   25.7722 H   0  0  0  0  0  0  0  0  0  0  0  0
   18.7209   19.9656   25.9030 N   0  3  0  0  0  0  0  0  0  0  0  0
   17.8649   19.7725   26.4309 H   0  0  0  0  0  0  0  0  0  0  0  0
   18.4574   20.1165   24.9261 H   0  0  0  0  0  0  0  0  0  0  0  0
   19.1089   20.8445   26.2575 H   0  0  0  0  0  0  0  0  0  0  0  0
  1  2  1  0  0  0  0
  1  3  1  0  0  0  0
  1  4  1  0  0  0  0
  1  5  1  0  0  0  0
  5  6  1  0  0  0  0
  5  7  1  0  0  0  0
  5  8  1  0  0  0  0
  8  9  1  0  0  0  0
  8 10  1  0  0  0  0
  8 11  1  0  0  0  0
 11 12  1  0  0  0  0
 11 13  1  0  0  0  0
 11 14  1  0  0  0  0
 14 15  1  0  0  0  0
 14 16  1  0  0  0  0
 14 17  1  0  0  0  0
 17 18  1  0  0  0  0
 17 19  1  0  0  0  0
 17 20  1  0  0  0  0
 20 21  1  0  0  0  0
 20 22  1  0  0  0  0
 22 23  1  0  0  0  0
 22 24  1  0  0  0  0
 22 25  1  0  0  0  0
 20 26  1  0  0  0  0
 26 27  1  0  0  0  0
 26 28  1  0  0  0  0
 26 29  1  0  0  0  0
M  END
> <VM2 Rank>
145

> <Conf_Id>
1202

> <Probability>
0.00

> <Sum Probability>
99.93

> <Delta G>
4.646

> <G>
38.348

> <E>
0.338

> <-TS>
38.010

> <U+W>
-23.807

> <U>
28.617

> <W>
-52.424

> <W(PB)>
-54.854

> <W(SA)>
2.430

> <Valence>
6.761

> <Coulomb>
20.675

> <VdW>
1.180

> <VdW6>
-10.633

> <VdW12>
11.814

> <Bond>
0.336

> <Angle>
2.591

> <Pdih>
3.833

> <Idih>
0.000

> <Tether>
0.000

$$$$
VeraChem MOL file


 29 28  0  0  0  0  0  0  0  0999 V2000     
   18.7347   19.8008   19.7202 C   0  0  0  0  0  0  0  0  0  0  0  0
   17.7501   19.9352   20.1867 H   0  0  0  0  0  0  0  0  0  0  0  0
   18.9309   20.6767   19.0883 H   0  0  0  0  0  0  0  0  0  0  0  0
   18.6868   18.9190   19.0680 H   0  0  0  0  0  0  0  0  0  0  0  0
   19.8370   19.6419   20.7886 C   0  0  0  0  0  0  0  0  0  0  0  0
   19.8802   20.5573   21.3938 H   0  0  0  0  0  0  0  0  0  0  0  0
   20.8128   19.5387   20.2938 H   0  0  0  0  0  0  0  0  0  0  0  0
   19.5792   18.4162   21.6959 C   0  0  0  0  0  0  0  0  0  0  0  0
   18.6262   18.5409   22.2258 H   0  0  0  0  0  0  0  0  0  0  0  0
   19.4527   17.5265   21.0638 H   0  0  0  0  0  0  0  0  0  0  0  0
   20.7218   18.1328   22.7064 C   0  0  0  0  0  0  0  0  0  0  0  0
   21.6193   17.8457   22.1416 H   0  0  0  0  0  0  0  0  0  0  0  0
   20.4541   17.2474   23.2938 H   0  0  0  0  0  0  0  0  0  0  0  0
   21.1010   19.3093   23.6503 C   0  0  0  0  0  0  0  0  0  0  0  0
   21.9447   19.0069   24.2858 H   0  0  0  0  0  0  0  0  0  0  0  0
   21.4905   20.1316   23.0358 H   0  0  0  0  0  0  0  0  0  0  0  0
   19.9568   19.8630   24.5454 C   0  0  0  0  0  0  0  0  0  0  0  0
   18.9907   19.8078   24.0315 H   0  0  0  0  0  0  0  0  0  0  0  0
   20.1469   20.9346   24.6910 H   0  0  0  0  0  0  0  0  0  0  0  0
   19.8481   19.2256   25.9517 C   0  0  2  0  0  0  0  0  0  0  0  0
   20.8070   19.3585   26.4619 H   0  0  0  0  0  0  0  0  0  0  0  0
   19.5327   17.7216   25.9089 C   0  0  0  0  0  0  0  0  0  0  0  0
   20.3869   17.1547   25.5229 H   0  0  0  0  0  0  0  0  0  0  0  0
   19.3259   17.3398   26.9162 H   0  0  0  0  0  0  0  0  0  0  0  0
   18.6585   17.5149   25.2791 H   0  0  0  0  0  0  0  0  0  0  0  0
   18.8248   19.9447   26.7865 N   0  3  0  0  0  0  0  0  0  0  0  0
   18.7811   19.5621   27.7354 H   0  0  0  0  0  0  0  0  0  0  0  0
   17.8885   19.8640   26.3811 H   0  0  0  0  0  0  0  0  0  0  0  0
   19.0398   20.9425   26.8701 H   0  0  0  0  0  0  0  0  0  0  0  0
  1  2  1  0  0  0  0
  1  3  1  0  0  0  0
  1  4  1  0  0  0  0
  1  5  1  0  0  0  0
  5  6  1  0  0  0  0
  5  7  1  0  0  0  0
  5  8  1  0  0  0  0
  8  9  1  0  0  0  0
  8 10  1  0  0  0  0
  8 11  1  0  0  0  0
 11 12  1  0  0  0  0
 11 13  1  0  0  0  0
 11 14  1  0  0  0  0
 14 15  1  0  0  0  0
 14 16  1  0  0  0  0
 14 17  1  0  0  0  0
 17 18  1  0  0  0  0
 17 19  1  0  0  0  0
 17 20  1  0  0  0  0
 20 21  1  0  0  0  0
 20 22  1  0  0  0  0
 22 23  1  0  0  0  0
 22 24  1  0  0  0  0
 22 25  1  0  0  0  0
 20 26  1  0  0  0  0
 26 27  1  0  0  0  0
 26 28  1  0  0  0  0
 26 29  1  0  0  0  0
M  END
> <VM2 Rank>
146

> <Conf_Id>
645

> <Probability>
0.00

> <Sum Probability>
99.94

> <Delta G>
4.653

> <G>
38.355

> <E>
0.623

> <-TS>
37.732

> <U+W>
-23.522

> <U>
28.954

> <W>
-52.475

> <W(PB)>
-54.903

> <W(SA)>
2.427

> <Valence>
7.580

> <Coulomb>
20.140

> <VdW>
1.233

> <VdW6>
-10.755

> <VdW12>
11.988

> <Bond>
0.385

> <Angle>
2.936

> <Pdih>
4.259

> <Idih>
0.000

> <Tether>
0.000

$$$$
VeraChem MOL file


 29 28  0  0  0  0  0  0  0  0999 V2000     
   18.1571   18.8761   20.9700 C   0  0  0  0  0  0  0  0  0  0  0  0
   18.2688   17.9246   20.4341 H   0  0  0  0  0  0  0  0  0  0  0  0
   17.9922   18.6562   22.0316 H   0  0  0  0  0  0  0  0  0  0  0  0
   17.2540   19.3716   20.5909 H   0  0  0  0  0  0  0  0  0  0  0  0
   19.3954   19.7773   20.7648 C   0  0  0  0  0  0  0  0  0  0  0  0
   19.2709   20.7124   21.3268 H   0  0  0  0  0  0  0  0  0  0  0  0
   19.4487   20.0686   19.7065 H   0  0  0  0  0  0  0  0  0  0  0  0
   20.7294   19.0907   21.1538 C   0  0  0  0  0  0  0  0  0  0  0  0
   20.8896   18.2276   20.4931 H   0  0  0  0  0  0  0  0  0  0  0  0
   21.5569   19.7836   20.9481 H   0  0  0  0  0  0  0  0  0  0  0  0
   20.8255   18.6136   22.6260 C   0  0  0  0  0  0  0  0  0  0  0  0
   21.8033   18.1326   22.7651 H   0  0  0  0  0  0  0  0  0  0  0  0
   20.0803   17.8312   22.8064 H   0  0  0  0  0  0  0  0  0  0  0  0
   20.6796   19.7629   23.6567 C   0  0  0  0  0  0  0  0  0  0  0  0
   21.4106   20.5418   23.3996 H   0  0  0  0  0  0  0  0  0  0  0  0
   19.6933   20.2346   23.5715 H   0  0  0  0  0  0  0  0  0  0  0  0
   20.9406   19.3213   25.1243 C   0  0  0  0  0  0  0  0  0  0  0  0
   21.4133   20.1586   25.6544 H   0  0  0  0  0  0  0  0  0  0  0  0
   21.6824   18.5123   25.1456 H   0  0  0  0  0  0  0  0  0  0  0  0
   19.6969   18.8997   25.9458 C   0  0  2  0  0  0  0  0  0  0  0  0
   20.0523   18.6229   26.9432 H   0  0  0  0  0  0  0  0  0  0  0  0
   18.9752   17.6760   25.3598 C   0  0  0  0  0  0  0  0  0  0  0  0
   18.2191   17.3056   26.0628 H   0  0  0  0  0  0  0  0  0  0  0  0
   18.4642   17.9225   24.4223 H   0  0  0  0  0  0  0  0  0  0  0  0
   19.6818   16.8587   25.1696 H   0  0  0  0  0  0  0  0  0  0  0  0
   18.7363   20.0385   26.1528 N   0  3  0  0  0  0  0  0  0  0  0  0
   17.9540   19.7628   26.7533 H   0  0  0  0  0  0  0  0  0  0  0  0
   18.3438   20.3601   25.2646 H   0  0  0  0  0  0  0  0  0  0  0  0
   19.1945   20.8399   26.5961 H   0  0  0  0  0  0  0  0  0  0  0  0
  1  2  1  0  0  0  0
  1  3  1  0  0  0  0
  1  4  1  0  0  0  0
  1  5  1  0  0  0  0
  5  6  1  0  0  0  0
  5  7  1  0  0  0  0
  5  8  1  0  0  0  0
  8  9  1  0  0  0  0
  8 10  1  0  0  0  0
  8 11  1  0  0  0  0
 11 12  1  0  0  0  0
 11 13  1  0  0  0  0
 11 14  1  0  0  0  0
 14 15  1  0  0  0  0
 14 16  1  0  0  0  0
 14 17  1  0  0  0  0
 17 18  1  0  0  0  0
 17 19  1  0  0  0  0
 17 20  1  0  0  0  0
 20 21  1  0  0  0  0
 20 22  1  0  0  0  0
 22 23  1  0  0  0  0
 22 24  1  0  0  0  0
 22 25  1  0  0  0  0
 20 26  1  0  0  0  0
 26 27  1  0  0  0  0
 26 28  1  0  0  0  0
 26 29  1  0  0  0  0
M  END
> <VM2 Rank>
147

> <Conf_Id>
954

> <Probability>
0.00

> <Sum Probability>
99.94

> <Delta G>
4.676

> <G>
38.377

> <E>
0.081

> <-TS>
38.296

> <U+W>
-24.063

> <U>
28.759

> <W>
-52.822

> <W(PB)>
-55.198

> <W(SA)>
2.376

> <Valence>
7.222

> <Coulomb>
20.590

> <VdW>
0.947

> <VdW6>
-11.470

> <VdW12>
12.417

> <Bond>
0.373

> <Angle>
2.548

> <Pdih>
4.302

> <Idih>
0.000

> <Tether>
0.000

$$$$
VeraChem MOL file


 29 28  0  0  0  0  0  0  0  0999 V2000     
   18.2679   19.6432   19.9151 C   0  0  0  0  0  0  0  0  0  0  0  0
   18.0826   20.4052   19.1469 H   0  0  0  0  0  0  0  0  0  0  0  0
   18.4220   18.6825   19.4066 H   0  0  0  0  0  0  0  0  0  0  0  0
   17.3646   19.5617   20.5336 H   0  0  0  0  0  0  0  0  0  0  0  0
   19.4951   20.0202   20.7715 C   0  0  0  0  0  0  0  0  0  0  0  0
   19.3250   20.9997   21.2398 H   0  0  0  0  0  0  0  0  0  0  0  0
   20.3740   20.1287   20.1206 H   0  0  0  0  0  0  0  0  0  0  0  0
   19.7793   18.9614   21.8595 C   0  0  0  0  0  0  0  0  0  0  0  0
   18.8882   18.8456   22.4885 H   0  0  0  0  0  0  0  0  0  0  0  0
   19.9563   17.9871   21.3834 H   0  0  0  0  0  0  0  0  0  0  0  0
   21.0071   19.3407   22.7222 C   0  0  0  0  0  0  0  0  0  0  0  0
   20.8624   20.3226   23.1888 H   0  0  0  0  0  0  0  0  0  0  0  0
   21.8764   19.4587   22.0604 H   0  0  0  0  0  0  0  0  0  0  0  0
   21.3631   18.2827   23.7976 C   0  0  0  0  0  0  0  0  0  0  0  0
   21.6476   17.3518   23.2880 H   0  0  0  0  0  0  0  0  0  0  0  0
   22.2644   18.6155   24.3308 H   0  0  0  0  0  0  0  0  0  0  0  0
   20.2611   17.9512   24.8415 C   0  0  0  0  0  0  0  0  0  0  0  0
   20.6591   17.1521   25.4811 H   0  0  0  0  0  0  0  0  0  0  0  0
   19.3779   17.5210   24.3527 H   0  0  0  0  0  0  0  0  0  0  0  0
   19.8468   19.1387   25.7424 C   0  0  2  0  0  0  0  0  0  0  0  0
   20.7470   19.7057   25.9985 H   0  0  0  0  0  0  0  0  0  0  0  0
   19.2116   18.6281   27.0462 C   0  0  0  0  0  0  0  0  0  0  0  0
   19.9161   17.9986   27.6040 H   0  0  0  0  0  0  0  0  0  0  0  0
   18.9310   19.4662   27.6960 H   0  0  0  0  0  0  0  0  0  0  0  0
   18.3105   18.0359   26.8431 H   0  0  0  0  0  0  0  0  0  0  0  0
   18.9041   20.0898   25.0580 N   0  3  0  0  0  0  0  0  0  0  0  0
   19.2903   20.4171   24.1687 H   0  0  0  0  0  0  0  0  0  0  0  0
   18.7138   20.9114   25.6392 H   0  0  0  0  0  0  0  0  0  0  0  0
   18.0063   19.6409   24.8584 H   0  0  0  0  0  0  0  0  0  0  0  0
  1  2  1  0  0  0  0
  1  3  1  0  0  0  0
  1  4  1  0  0  0  0
  1  5  1  0  0  0  0
  5  6  1  0  0  0  0
  5  7  1  0  0  0  0
  5  8  1  0  0  0  0
  8  9  1  0  0  0  0
  8 10  1  0  0  0  0
  8 11  1  0  0  0  0
 11 12  1  0  0  0  0
 11 13  1  0  0  0  0
 11 14  1  0  0  0  0
 14 15  1  0  0  0  0
 14 16  1  0  0  0  0
 14 17  1  0  0  0  0
 17 18  1  0  0  0  0
 17 19  1  0  0  0  0
 17 20  1  0  0  0  0
 20 21  1  0  0  0  0
 20 22  1  0  0  0  0
 22 23  1  0  0  0  0
 22 24  1  0  0  0  0
 22 25  1  0  0  0  0
 20 26  1  0  0  0  0
 26 27  1  0  0  0  0
 26 28  1  0  0  0  0
 26 29  1  0  0  0  0
M  END
> <VM2 Rank>
148

> <Conf_Id>
270

> <Probability>
0.00

> <Sum Probability>
99.95

> <Delta G>
4.704

> <G>
38.406

> <E>
0.347

> <-TS>
38.058

> <U+W>
-23.797

> <U>
27.762

> <W>
-51.559

> <W(PB)>
-54.036

> <W(SA)>
2.477

> <Valence>
5.446

> <Coulomb>
21.562

> <VdW>
0.755

> <VdW6>
-10.491

> <VdW12>
11.247

> <Bond>
0.290

> <Angle>
2.160

> <Pdih>
2.996

> <Idih>
0.000

> <Tether>
0.000

$$$$
VeraChem MOL file


 29 28  0  0  0  0  0  0  0  0999 V2000     
   20.6122   20.4432   20.5831 C   0  0  0  0  0  0  0  0  0  0  0  0
   20.2538   21.1849   21.3085 H   0  0  0  0  0  0  0  0  0  0  0  0
   21.4700   19.9153   21.0176 H   0  0  0  0  0  0  0  0  0  0  0  0
   20.9735   20.9846   19.6993 H   0  0  0  0  0  0  0  0  0  0  0  0
   19.4883   19.4594   20.1913 C   0  0  0  0  0  0  0  0  0  0  0  0
   19.8916   18.6964   19.5109 H   0  0  0  0  0  0  0  0  0  0  0  0
   18.7260   20.0056   19.6183 H   0  0  0  0  0  0  0  0  0  0  0  0
   18.7985   18.7705   21.3961 C   0  0  0  0  0  0  0  0  0  0  0  0
   18.3089   19.5261   22.0229 H   0  0  0  0  0  0  0  0  0  0  0  0
   17.9868   18.1457   20.9988 H   0  0  0  0  0  0  0  0  0  0  0  0
   19.7337   17.8641   22.2426 C   0  0  0  0  0  0  0  0  0  0  0  0
   20.5343   17.4699   21.6017 H   0  0  0  0  0  0  0  0  0  0  0  0
   19.1688   16.9841   22.5797 H   0  0  0  0  0  0  0  0  0  0  0  0
   20.3577   18.5503   23.4856 C   0  0  0  0  0  0  0  0  0  0  0  0
   21.1786   17.9155   23.8433 H   0  0  0  0  0  0  0  0  0  0  0  0
   20.8089   19.5102   23.2073 H   0  0  0  0  0  0  0  0  0  0  0  0
   19.3407   18.7660   24.6370 C   0  0  0  0  0  0  0  0  0  0  0  0
   18.9545   17.7952   24.9746 H   0  0  0  0  0  0  0  0  0  0  0  0
   18.4777   19.3257   24.2575 H   0  0  0  0  0  0  0  0  0  0  0  0
   19.9222   19.5398   25.8425 C   0  0  2  0  0  0  0  0  0  0  0  0
   20.3392   20.4828   25.4760 H   0  0  0  0  0  0  0  0  0  0  0  0
   21.0402   18.7562   26.5534 C   0  0  0  0  0  0  0  0  0  0  0  0
   20.6873   17.7705   26.8813 H   0  0  0  0  0  0  0  0  0  0  0  0
   21.9058   18.6112   25.8969 H   0  0  0  0  0  0  0  0  0  0  0  0
   21.3927   19.3023   27.4371 H   0  0  0  0  0  0  0  0  0  0  0  0
   18.8424   19.9065   26.8224 N   0  3  0  0  0  0  0  0  0  0  0  0
   18.1078   20.4678   26.3817 H   0  0  0  0  0  0  0  0  0  0  0  0
   19.2162   20.4534   27.6033 H   0  0  0  0  0  0  0  0  0  0  0  0
   18.3980   19.0736   27.2179 H   0  0  0  0  0  0  0  0  0  0  0  0
  1  2  1  0  0  0  0
  1  3  1  0  0  0  0
  1  4  1  0  0  0  0
  1  5  1  0  0  0  0
  5  6  1  0  0  0  0
  5  7  1  0  0  0  0
  5  8  1  0  0  0  0
  8  9  1  0  0  0  0
  8 10  1  0  0  0  0
  8 11  1  0  0  0  0
 11 12  1  0  0  0  0
 11 13  1  0  0  0  0
 11 14  1  0  0  0  0
 14 15  1  0  0  0  0
 14 16  1  0  0  0  0
 14 17  1  0  0  0  0
 17 18  1  0  0  0  0
 17 19  1  0  0  0  0
 17 20  1  0  0  0  0
 20 21  1  0  0  0  0
 20 22  1  0  0  0  0
 22 23  1  0  0  0  0
 22 24  1  0  0  0  0
 22 25  1  0  0  0  0
 20 26  1  0  0  0  0
 26 27  1  0  0  0  0
 26 28  1  0  0  0  0
 26 29  1  0  0  0  0
M  END
> <VM2 Rank>
149

> <Conf_Id>
182

> <Probability>
0.00

> <Sum Probability>
99.95

> <Delta G>
4.730

> <G>
38.432

> <E>
0.585

> <-TS>
37.847

> <U+W>
-23.559

> <U>
28.875

> <W>
-52.435

> <W(PB)>
-54.885

> <W(SA)>
2.450

> <Valence>
7.510

> <Coulomb>
19.951

> <VdW>
1.414

> <VdW6>
-10.241

> <VdW12>
11.655

> <Bond>
0.342

> <Angle>
2.142

> <Pdih>
5.026

> <Idih>
0.000

> <Tether>
0.000

$$$$
VeraChem MOL file


 29 28  0  0  0  0  0  0  0  0999 V2000     
   18.7371   20.5443   21.0392 C   0  0  0  0  0  0  0  0  0  0  0  0
   18.5128   21.4681   20.4904 H   0  0  0  0  0  0  0  0  0  0  0  0
   17.8850   19.8637   20.9138 H   0  0  0  0  0  0  0  0  0  0  0  0
   18.8235   20.8076   22.0995 H   0  0  0  0  0  0  0  0  0  0  0  0
   20.0413   19.9080   20.5120 C   0  0  0  0  0  0  0  0  0  0  0  0
   20.8859   20.5787   20.7231 H   0  0  0  0  0  0  0  0  0  0  0  0
   19.9784   19.8341   19.4174 H   0  0  0  0  0  0  0  0  0  0  0  0
   20.3413   18.4979   21.0813 C   0  0  0  0  0  0  0  0  0  0  0  0
   19.5488   17.7960   20.7879 H   0  0  0  0  0  0  0  0  0  0  0  0
   21.2548   18.1330   20.5916 H   0  0  0  0  0  0  0  0  0  0  0  0
   20.5655   18.4489   22.6151 C   0  0  0  0  0  0  0  0  0  0  0  0
   20.9925   19.4010   22.9564 H   0  0  0  0  0  0  0  0  0  0  0  0
   21.3228   17.6820   22.8287 H   0  0  0  0  0  0  0  0  0  0  0  0
   19.2847   18.0947   23.4141 C   0  0  0  0  0  0  0  0  0  0  0  0
   18.4981   18.8365   23.2362 H   0  0  0  0  0  0  0  0  0  0  0  0
   18.8853   17.1414   23.0417 H   0  0  0  0  0  0  0  0  0  0  0  0
   19.5378   17.9537   24.9370 C   0  0  0  0  0  0  0  0  0  0  0  0
   20.2446   17.1297   25.1027 H   0  0  0  0  0  0  0  0  0  0  0  0
   18.6019   17.6579   25.4294 H   0  0  0  0  0  0  0  0  0  0  0  0
   20.0877   19.2311   25.6101 C   0  0  2  0  0  0  0  0  0  0  0  0
   21.0293   19.5002   25.1226 H   0  0  0  0  0  0  0  0  0  0  0  0
   20.3762   18.9704   27.0968 C   0  0  0  0  0  0  0  0  0  0  0  0
   19.4605   18.7007   27.6379 H   0  0  0  0  0  0  0  0  0  0  0  0
   21.0971   18.1519   27.2160 H   0  0  0  0  0  0  0  0  0  0  0  0
   20.8037   19.8621   27.5716 H   0  0  0  0  0  0  0  0  0  0  0  0
   19.1644   20.4071   25.4483 N   0  3  0  0  0  0  0  0  0  0  0  0
   18.2574   20.2309   25.8887 H   0  0  0  0  0  0  0  0  0  0  0  0
   18.9954   20.6110   24.4599 H   0  0  0  0  0  0  0  0  0  0  0  0
   19.5552   21.2513   25.8766 H   0  0  0  0  0  0  0  0  0  0  0  0
  1  2  1  0  0  0  0
  1  3  1  0  0  0  0
  1  4  1  0  0  0  0
  1  5  1  0  0  0  0
  5  6  1  0  0  0  0
  5  7  1  0  0  0  0
  5  8  1  0  0  0  0
  8  9  1  0  0  0  0
  8 10  1  0  0  0  0
  8 11  1  0  0  0  0
 11 12  1  0  0  0  0
 11 13  1  0  0  0  0
 11 14  1  0  0  0  0
 14 15  1  0  0  0  0
 14 16  1  0  0  0  0
 14 17  1  0  0  0  0
 17 18  1  0  0  0  0
 17 19  1  0  0  0  0
 17 20  1  0  0  0  0
 20 21  1  0  0  0  0
 20 22  1  0  0  0  0
 22 23  1  0  0  0  0
 22 24  1  0  0  0  0
 22 25  1  0  0  0  0
 20 26  1  0  0  0  0
 26 27  1  0  0  0  0
 26 28  1  0  0  0  0
 26 29  1  0  0  0  0
M  END
> <VM2 Rank>
150

> <Conf_Id>
993

> <Probability>
0.00

> <Sum Probability>
99.95

> <Delta G>
4.756

> <G>
38.458

> <E>
0.591

> <-TS>
37.866

> <U+W>
-23.553

> <U>
28.544

> <W>
-52.097

> <W(PB)>
-54.537

> <W(SA)>
2.440

> <Valence>
6.447

> <Coulomb>
21.308

> <VdW>
0.789

> <VdW6>
-10.662

> <VdW12>
11.451

> <Bond>
0.309

> <Angle>
1.905

> <Pdih>
4.232

> <Idih>
0.000

> <Tether>
0.000

$$$$
VeraChem MOL file


 29 28  0  0  0  0  0  0  0  0999 V2000     
   19.0693   19.7353   19.3828 C   0  0  0  0  0  0  0  0  0  0  0  0
   20.0616   19.8986   18.9425 H   0  0  0  0  0  0  0  0  0  0  0  0
   18.6683   18.7948   18.9831 H   0  0  0  0  0  0  0  0  0  0  0  0
   18.4139   20.5500   19.0484 H   0  0  0  0  0  0  0  0  0  0  0  0
   19.1464   19.6957   20.9236 C   0  0  0  0  0  0  0  0  0  0  0  0
   18.1364   19.5612   21.3351 H   0  0  0  0  0  0  0  0  0  0  0  0
   19.5129   20.6649   21.2872 H   0  0  0  0  0  0  0  0  0  0  0  0
   20.0687   18.5566   21.4187 C   0  0  0  0  0  0  0  0  0  0  0  0
   19.7273   17.6063   20.9855 H   0  0  0  0  0  0  0  0  0  0  0  0
   21.0889   18.7168   21.0436 H   0  0  0  0  0  0  0  0  0  0  0  0
   20.0983   18.4118   22.9598 C   0  0  0  0  0  0  0  0  0  0  0  0
   20.6935   17.5242   23.2150 H   0  0  0  0  0  0  0  0  0  0  0  0
   19.0779   18.2231   23.3147 H   0  0  0  0  0  0  0  0  0  0  0  0
   20.6925   19.6467   23.6803 C   0  0  0  0  0  0  0  0  0  0  0  0
   21.6202   19.9364   23.1679 H   0  0  0  0  0  0  0  0  0  0  0  0
   20.0157   20.5044   23.5762 H   0  0  0  0  0  0  0  0  0  0  0  0
   21.0321   19.4268   25.1820 C   0  0  0  0  0  0  0  0  0  0  0  0
   21.5005   20.3496   25.5484 H   0  0  0  0  0  0  0  0  0  0  0  0
   21.8072   18.6547   25.2753 H   0  0  0  0  0  0  0  0  0  0  0  0
   19.8563   19.0998   26.1389 C   0  0  2  0  0  0  0  0  0  0  0  0
   20.1732   19.4086   27.1398 H   0  0  0  0  0  0  0  0  0  0  0  0
   19.5599   17.5912   26.2250 C   0  0  0  0  0  0  0  0  0  0  0  0
   18.8199   17.3932   27.0100 H   0  0  0  0  0  0  0  0  0  0  0  0
   19.1642   17.1878   25.2884 H   0  0  0  0  0  0  0  0  0  0  0  0
   20.4674   17.0306   26.4810 H   0  0  0  0  0  0  0  0  0  0  0  0
   18.6125   19.8920   25.8430 N   0  3  0  0  0  0  0  0  0  0  0  0
   18.2498   19.6718   24.9121 H   0  0  0  0  0  0  0  0  0  0  0  0
   18.7959   20.8991   25.8732 H   0  0  0  0  0  0  0  0  0  0  0  0
   17.8714   19.6940   26.5213 H   0  0  0  0  0  0  0  0  0  0  0  0
  1  2  1  0  0  0  0
  1  3  1  0  0  0  0
  1  4  1  0  0  0  0
  1  5  1  0  0  0  0
  5  6  1  0  0  0  0
  5  7  1  0  0  0  0
  5  8  1  0  0  0  0
  8  9  1  0  0  0  0
  8 10  1  0  0  0  0
  8 11  1  0  0  0  0
 11 12  1  0  0  0  0
 11 13  1  0  0  0  0
 11 14  1  0  0  0  0
 14 15  1  0  0  0  0
 14 16  1  0  0  0  0
 14 17  1  0  0  0  0
 17 18  1  0  0  0  0
 17 19  1  0  0  0  0
 17 20  1  0  0  0  0
 20 21  1  0  0  0  0
 20 22  1  0  0  0  0
 22 23  1  0  0  0  0
 22 24  1  0  0  0  0
 22 25  1  0  0  0  0
 20 26  1  0  0  0  0
 26 27  1  0  0  0  0
 26 28  1  0  0  0  0
 26 29  1  0  0  0  0
M  END
> <VM2 Rank>
151

> <Conf_Id>
674

> <Probability>
0.00

> <Sum Probability>
99.96

> <Delta G>
4.782

> <G>
38.483

> <E>
0.470

> <-TS>
38.013

> <U+W>
-23.674

> <U>
28.749

> <W>
-52.423

> <W(PB)>
-54.870

> <W(SA)>
2.447

> <Valence>
6.743

> <Coulomb>
20.841

> <VdW>
1.164

> <VdW6>
-10.610

> <VdW12>
11.774

> <Bond>
0.335

> <Angle>
2.546

> <Pdih>
3.863

> <Idih>
0.000

> <Tether>
0.000

$$$$
VeraChem MOL file


 29 28  0  0  0  0  0  0  0  0999 V2000     
   19.2002   20.3517   20.4980 C   0  0  0  0  0  0  0  0  0  0  0  0
   18.2808   19.7827   20.6839 H   0  0  0  0  0  0  0  0  0  0  0  0
   18.9127   21.3962   20.3212 H   0  0  0  0  0  0  0  0  0  0  0  0
   19.6614   19.9697   19.5780 H   0  0  0  0  0  0  0  0  0  0  0  0
   20.1771   20.2534   21.6909 C   0  0  0  0  0  0  0  0  0  0  0  0
   19.6854   20.6260   22.5973 H   0  0  0  0  0  0  0  0  0  0  0  0
   21.0258   20.9273   21.5092 H   0  0  0  0  0  0  0  0  0  0  0  0
   20.7241   18.8214   21.9203 C   0  0  0  0  0  0  0  0  0  0  0  0
   21.2837   18.5151   21.0259 H   0  0  0  0  0  0  0  0  0  0  0  0
   21.4633   18.8360   22.7310 H   0  0  0  0  0  0  0  0  0  0  0  0
   19.6496   17.7424   22.2162 C   0  0  0  0  0  0  0  0  0  0  0  0
   20.1531   16.7740   22.3413 H   0  0  0  0  0  0  0  0  0  0  0  0
   19.0111   17.6229   21.3310 H   0  0  0  0  0  0  0  0  0  0  0  0
   18.7432   17.9967   23.4506 C   0  0  0  0  0  0  0  0  0  0  0  0
   18.1655   18.9201   23.3213 H   0  0  0  0  0  0  0  0  0  0  0  0
   17.9963   17.1912   23.4743 H   0  0  0  0  0  0  0  0  0  0  0  0
   19.4879   17.9862   24.8135 C   0  0  0  0  0  0  0  0  0  0  0  0
   20.2697   17.2155   24.7886 H   0  0  0  0  0  0  0  0  0  0  0  0
   18.7854   17.6749   25.5981 H   0  0  0  0  0  0  0  0  0  0  0  0
   20.1029   19.3431   25.2239 C   0  0  2  0  0  0  0  0  0  0  0  0
   20.7235   19.7123   24.4043 H   0  0  0  0  0  0  0  0  0  0  0  0
   20.9981   19.1712   26.4611 C   0  0  0  0  0  0  0  0  0  0  0  0
   21.4594   20.1258   26.7424 H   0  0  0  0  0  0  0  0  0  0  0  0
   20.4226   18.8031   27.3197 H   0  0  0  0  0  0  0  0  0  0  0  0
   21.8070   18.4575   26.2605 H   0  0  0  0  0  0  0  0  0  0  0  0
   19.0529   20.3900   25.4794 N   0  3  0  0  0  0  0  0  0  0  0  0
   19.4741   21.2916   25.7211 H   0  0  0  0  0  0  0  0  0  0  0  0
   18.4421   20.1207   26.2554 H   0  0  0  0  0  0  0  0  0  0  0  0
   18.4603   20.5353   24.6580 H   0  0  0  0  0  0  0  0  0  0  0  0
  1  2  1  0  0  0  0
  1  3  1  0  0  0  0
  1  4  1  0  0  0  0
  1  5  1  0  0  0  0
  5  6  1  0  0  0  0
  5  7  1  0  0  0  0
  5  8  1  0  0  0  0
  8  9  1  0  0  0  0
  8 10  1  0  0  0  0
  8 11  1  0  0  0  0
 11 12  1  0  0  0  0
 11 13  1  0  0  0  0
 11 14  1  0  0  0  0
 14 15  1  0  0  0  0
 14 16  1  0  0  0  0
 14 17  1  0  0  0  0
 17 18  1  0  0  0  0
 17 19  1  0  0  0  0
 17 20  1  0  0  0  0
 20 21  1  0  0  0  0
 20 22  1  0  0  0  0
 22 23  1  0  0  0  0
 22 24  1  0  0  0  0
 22 25  1  0  0  0  0
 20 26  1  0  0  0  0
 26 27  1  0  0  0  0
 26 28  1  0  0  0  0
 26 29  1  0  0  0  0
M  END
> <VM2 Rank>
152

> <Conf_Id>
615

> <Probability>
0.00

> <Sum Probability>
99.96

> <Delta G>
4.789

> <G>
38.491

> <E>
-0.162

> <-TS>
38.652

> <U+W>
-24.306

> <U>
28.628

> <W>
-52.934

> <W(PB)>
-55.335

> <W(SA)>
2.402

> <Valence>
6.751

> <Coulomb>
21.512

> <VdW>
0.364

> <VdW6>
-12.196

> <VdW12>
12.560

> <Bond>
0.349

> <Angle>
2.627

> <Pdih>
3.776

> <Idih>
0.000

> <Tether>
0.000

$$$$
VeraChem MOL file


 29 28  0  0  0  0  0  0  0  0999 V2000     
   18.3820   19.9353   20.8096 C   0  0  0  0  0  0  0  0  0  0  0  0
   18.2071   19.4178   19.8575 H   0  0  0  0  0  0  0  0  0  0  0  0
   17.9216   19.3416   21.6083 H   0  0  0  0  0  0  0  0  0  0  0  0
   17.8588   20.8993   20.7682 H   0  0  0  0  0  0  0  0  0  0  0  0
   19.8936   20.1493   21.0520 C   0  0  0  0  0  0  0  0  0  0  0  0
   20.0570   20.6927   21.9913 H   0  0  0  0  0  0  0  0  0  0  0  0
   20.2845   20.8026   20.2595 H   0  0  0  0  0  0  0  0  0  0  0  0
   20.7065   18.8317   21.0459 C   0  0  0  0  0  0  0  0  0  0  0  0
   20.5738   18.3434   20.0707 H   0  0  0  0  0  0  0  0  0  0  0  0
   21.7756   19.0761   21.1119 H   0  0  0  0  0  0  0  0  0  0  0  0
   20.3564   17.8108   22.1621 C   0  0  0  0  0  0  0  0  0  0  0  0
   20.9510   16.9067   21.9710 H   0  0  0  0  0  0  0  0  0  0  0  0
   19.3095   17.4897   22.0829 H   0  0  0  0  0  0  0  0  0  0  0  0
   20.6738   18.2904   23.6031 C   0  0  0  0  0  0  0  0  0  0  0  0
   21.0344   17.4241   24.1729 H   0  0  0  0  0  0  0  0  0  0  0  0
   21.5027   19.0114   23.5863 H   0  0  0  0  0  0  0  0  0  0  0  0
   19.4499   18.8938   24.3403 C   0  0  0  0  0  0  0  0  0  0  0  0
   18.6723   18.1263   24.4504 H   0  0  0  0  0  0  0  0  0  0  0  0
   19.0112   19.6882   23.7279 H   0  0  0  0  0  0  0  0  0  0  0  0
   19.7904   19.4885   25.7259 C   0  0  2  0  0  0  0  0  0  0  0  0
   20.5950   20.2190   25.5971 H   0  0  0  0  0  0  0  0  0  0  0  0
   20.2631   18.4135   26.7210 C   0  0  0  0  0  0  0  0  0  0  0  0
   19.5141   17.6198   26.8334 H   0  0  0  0  0  0  0  0  0  0  0  0
   21.2044   17.9553   26.3962 H   0  0  0  0  0  0  0  0  0  0  0  0
   20.4423   18.8543   27.7094 H   0  0  0  0  0  0  0  0  0  0  0  0
   18.6203   20.2427   26.2940 N   0  3  0  0  0  0  0  0  0  0  0  0
   17.8180   19.6263   26.4490 H   0  0  0  0  0  0  0  0  0  0  0  0
   18.3157   20.9939   25.6682 H   0  0  0  0  0  0  0  0  0  0  0  0
   18.8539   20.6720   27.1940 H   0  0  0  0  0  0  0  0  0  0  0  0
  1  2  1  0  0  0  0
  1  3  1  0  0  0  0
  1  4  1  0  0  0  0
  1  5  1  0  0  0  0
  5  6  1  0  0  0  0
  5  7  1  0  0  0  0
  5  8  1  0  0  0  0
  8  9  1  0  0  0  0
  8 10  1  0  0  0  0
  8 11  1  0  0  0  0
 11 12  1  0  0  0  0
 11 13  1  0  0  0  0
 11 14  1  0  0  0  0
 14 15  1  0  0  0  0
 14 16  1  0  0  0  0
 14 17  1  0  0  0  0
 17 18  1  0  0  0  0
 17 19  1  0  0  0  0
 17 20  1  0  0  0  0
 20 21  1  0  0  0  0
 20 22  1  0  0  0  0
 22 23  1  0  0  0  0
 22 24  1  0  0  0  0
 22 25  1  0  0  0  0
 20 26  1  0  0  0  0
 26 27  1  0  0  0  0
 26 28  1  0  0  0  0
 26 29  1  0  0  0  0
M  END
> <VM2 Rank>
153

> <Conf_Id>
997

> <Probability>
0.00

> <Sum Probability>
99.96

> <Delta G>
4.797

> <G>
38.499

> <E>
0.266

> <-TS>
38.233

> <U+W>
-23.879

> <U>
28.814

> <W>
-52.692

> <W(PB)>
-55.134

> <W(SA)>
2.442

> <Valence>
7.405

> <Coulomb>
20.332

> <VdW>
1.077

> <VdW6>
-10.782

> <VdW12>
11.859

> <Bond>
0.335

> <Angle>
2.432

> <Pdih>
4.638

> <Idih>
0.000

> <Tether>
0.000

$$$$
VeraChem MOL file


 29 28  0  0  0  0  0  0  0  0999 V2000     
   18.9262   20.3917   19.8915 C   0  0  0  0  0  0  0  0  0  0  0  0
   18.1712   20.2483   19.1076 H   0  0  0  0  0  0  0  0  0  0  0  0
   18.6564   21.2921   20.4586 H   0  0  0  0  0  0  0  0  0  0  0  0
   19.8913   20.5731   19.4006 H   0  0  0  0  0  0  0  0  0  0  0  0
   18.9965   19.1557   20.8128 C   0  0  0  0  0  0  0  0  0  0  0  0
   19.2334   18.2664   20.2120 H   0  0  0  0  0  0  0  0  0  0  0  0
   18.0092   18.9804   21.2625 H   0  0  0  0  0  0  0  0  0  0  0  0
   20.0546   19.3312   21.9241 C   0  0  0  0  0  0  0  0  0  0  0  0
   21.0398   19.4985   21.4673 H   0  0  0  0  0  0  0  0  0  0  0  0
   19.8206   20.2326   22.5034 H   0  0  0  0  0  0  0  0  0  0  0  0
   20.1229   18.0942   22.8517 C   0  0  0  0  0  0  0  0  0  0  0  0
   20.3523   17.2106   22.2402 H   0  0  0  0  0  0  0  0  0  0  0  0
   19.1416   17.8941   23.2979 H   0  0  0  0  0  0  0  0  0  0  0  0
   21.2026   18.2073   23.9580 C   0  0  0  0  0  0  0  0  0  0  0  0
   21.2369   17.2629   24.5174 H   0  0  0  0  0  0  0  0  0  0  0  0
   22.1854   18.2907   23.4739 H   0  0  0  0  0  0  0  0  0  0  0  0
   21.0513   19.3929   24.9561 C   0  0  0  0  0  0  0  0  0  0  0  0
   21.1708   20.3452   24.4245 H   0  0  0  0  0  0  0  0  0  0  0  0
   21.8996   19.3478   25.6516 H   0  0  0  0  0  0  0  0  0  0  0  0
   19.7573   19.4446   25.8085 C   0  0  2  0  0  0  0  0  0  0  0  0
   19.9214   20.1940   26.5889 H   0  0  0  0  0  0  0  0  0  0  0  0
   19.4639   18.1084   26.5126 C   0  0  0  0  0  0  0  0  0  0  0  0
   19.1941   17.3234   25.7963 H   0  0  0  0  0  0  0  0  0  0  0  0
   20.3380   17.7693   27.0823 H   0  0  0  0  0  0  0  0  0  0  0  0
   18.6307   18.2205   27.2171 H   0  0  0  0  0  0  0  0  0  0  0  0
   18.5606   19.9301   25.0387 N   0  3  0  0  0  0  0  0  0  0  0  0
   18.3597   19.3164   24.2457 H   0  0  0  0  0  0  0  0  0  0  0  0
   18.7121   20.8729   24.6693 H   0  0  0  0  0  0  0  0  0  0  0  0
   17.7247   19.9633   25.6295 H   0  0  0  0  0  0  0  0  0  0  0  0
  1  2  1  0  0  0  0
  1  3  1  0  0  0  0
  1  4  1  0  0  0  0
  1  5  1  0  0  0  0
  5  6  1  0  0  0  0
  5  7  1  0  0  0  0
  5  8  1  0  0  0  0
  8  9  1  0  0  0  0
  8 10  1  0  0  0  0
  8 11  1  0  0  0  0
 11 12  1  0  0  0  0
 11 13  1  0  0  0  0
 11 14  1  0  0  0  0
 14 15  1  0  0  0  0
 14 16  1  0  0  0  0
 14 17  1  0  0  0  0
 17 18  1  0  0  0  0
 17 19  1  0  0  0  0
 17 20  1  0  0  0  0
 20 21  1  0  0  0  0
 20 22  1  0  0  0  0
 22 23  1  0  0  0  0
 22 24  1  0  0  0  0
 22 25  1  0  0  0  0
 20 26  1  0  0  0  0
 26 27  1  0  0  0  0
 26 28  1  0  0  0  0
 26 29  1  0  0  0  0
M  END
> <VM2 Rank>
154

> <Conf_Id>
991

> <Probability>
0.00

> <Sum Probability>
99.97

> <Delta G>
4.822

> <G>
38.524

> <E>
0.044

> <-TS>
38.481

> <U+W>
-24.101

> <U>
28.029

> <W>
-52.130

> <W(PB)>
-54.545

> <W(SA)>
2.415

> <Valence>
5.578

> <Coulomb>
21.811

> <VdW>
0.640

> <VdW6>
-11.463

> <VdW12>
12.103

> <Bond>
0.349

> <Angle>
2.654

> <Pdih>
2.574

> <Idih>
0.000

> <Tether>
0.000

$$$$
VeraChem MOL file


 29 28  0  0  0  0  0  0  0  0999 V2000     
   20.1153   18.7014   19.4451 C   0  0  0  0  0  0  0  0  0  0  0  0
   20.4649   19.6844   19.1039 H   0  0  0  0  0  0  0  0  0  0  0  0
   20.9675   18.1645   19.8797 H   0  0  0  0  0  0  0  0  0  0  0  0
   19.7858   18.1374   18.5629 H   0  0  0  0  0  0  0  0  0  0  0  0
   18.9573   18.8444   20.4586 C   0  0  0  0  0  0  0  0  0  0  0  0
   18.6483   17.8500   20.8097 H   0  0  0  0  0  0  0  0  0  0  0  0
   18.0866   19.2721   19.9420 H   0  0  0  0  0  0  0  0  0  0  0  0
   19.3050   19.7424   21.6704 C   0  0  0  0  0  0  0  0  0  0  0  0
   19.5955   20.7402   21.3141 H   0  0  0  0  0  0  0  0  0  0  0  0
   18.3930   19.8829   22.2641 H   0  0  0  0  0  0  0  0  0  0  0  0
   20.4299   19.1609   22.5647 C   0  0  0  0  0  0  0  0  0  0  0  0
   21.3537   19.0888   21.9762 H   0  0  0  0  0  0  0  0  0  0  0  0
   20.1731   18.1368   22.8612 H   0  0  0  0  0  0  0  0  0  0  0  0
   20.7249   20.0308   23.8144 C   0  0  0  0  0  0  0  0  0  0  0  0
   21.6987   19.7478   24.2376 H   0  0  0  0  0  0  0  0  0  0  0  0
   20.8401   21.0742   23.4899 H   0  0  0  0  0  0  0  0  0  0  0  0
   19.6406   19.9636   24.9255 C   0  0  0  0  0  0  0  0  0  0  0  0
   18.6571   19.7297   24.5009 H   0  0  0  0  0  0  0  0  0  0  0  0
   19.5467   20.9671   25.3611 H   0  0  0  0  0  0  0  0  0  0  0  0
   19.9596   18.9827   26.0791 C   0  0  2  0  0  0  0  0  0  0  0  0
   20.9256   19.2649   26.5090 H   0  0  0  0  0  0  0  0  0  0  0  0
   20.0515   17.5215   25.6083 C   0  0  0  0  0  0  0  0  0  0  0  0
   19.1362   17.2132   25.0879 H   0  0  0  0  0  0  0  0  0  0  0  0
   20.9020   17.3790   24.9317 H   0  0  0  0  0  0  0  0  0  0  0  0
   20.2017   16.8486   26.4615 H   0  0  0  0  0  0  0  0  0  0  0  0
   18.9519   19.1083   27.1878 N   0  3  0  0  0  0  0  0  0  0  0  0
   18.0126   18.8553   26.8695 H   0  0  0  0  0  0  0  0  0  0  0  0
   18.9072   20.0651   27.5503 H   0  0  0  0  0  0  0  0  0  0  0  0
   19.1835   18.4951   27.9746 H   0  0  0  0  0  0  0  0  0  0  0  0
  1  2  1  0  0  0  0
  1  3  1  0  0  0  0
  1  4  1  0  0  0  0
  1  5  1  0  0  0  0
  5  6  1  0  0  0  0
  5  7  1  0  0  0  0
  5  8  1  0  0  0  0
  8  9  1  0  0  0  0
  8 10  1  0  0  0  0
  8 11  1  0  0  0  0
 11 12  1  0  0  0  0
 11 13  1  0  0  0  0
 11 14  1  0  0  0  0
 14 15  1  0  0  0  0
 14 16  1  0  0  0  0
 14 17  1  0  0  0  0
 17 18  1  0  0  0  0
 17 19  1  0  0  0  0
 17 20  1  0  0  0  0
 20 21  1  0  0  0  0
 20 22  1  0  0  0  0
 22 23  1  0  0  0  0
 22 24  1  0  0  0  0
 22 25  1  0  0  0  0
 20 26  1  0  0  0  0
 26 27  1  0  0  0  0
 26 28  1  0  0  0  0
 26 29  1  0  0  0  0
M  END
> <VM2 Rank>
155

> <Conf_Id>
93

> <Probability>
0.00

> <Sum Probability>
99.97

> <Delta G>
4.842

> <G>
38.544

> <E>
0.671

> <-TS>
37.873

> <U+W>
-23.473

> <U>
28.780

> <W>
-52.253

> <W(PB)>
-54.714

> <W(SA)>
2.461

> <Valence>
7.565

> <Coulomb>
19.822

> <VdW>
1.392

> <VdW6>
-10.248

> <VdW12>
11.640

> <Bond>
0.341

> <Angle>
2.097

> <Pdih>
5.128

> <Idih>
0.000

> <Tether>
0.000

$$$$
VeraChem MOL file


 29 28  0  0  0  0  0  0  0  0999 V2000     
   19.0429   18.9015   19.5360 C   0  0  0  0  0  0  0  0  0  0  0  0
   18.1341   18.6149   20.0795 H   0  0  0  0  0  0  0  0  0  0  0  0
   18.9548   19.9575   19.2496 H   0  0  0  0  0  0  0  0  0  0  0  0
   19.0773   18.3056   18.6147 H   0  0  0  0  0  0  0  0  0  0  0  0
   20.3123   18.6596   20.3837 C   0  0  0  0  0  0  0  0  0  0  0  0
   21.1959   18.8391   19.7555 H   0  0  0  0  0  0  0  0  0  0  0  0
   20.3595   17.6041   20.6859 H   0  0  0  0  0  0  0  0  0  0  0  0
   20.4014   19.5665   21.6350 C   0  0  0  0  0  0  0  0  0  0  0  0
   21.3840   19.4123   22.0979 H   0  0  0  0  0  0  0  0  0  0  0  0
   20.3702   20.6201   21.3252 H   0  0  0  0  0  0  0  0  0  0  0  0
   19.2821   19.2952   22.6728 C   0  0  0  0  0  0  0  0  0  0  0  0
   19.2688   18.2300   22.9316 H   0  0  0  0  0  0  0  0  0  0  0  0
   18.3091   19.5107   22.2126 H   0  0  0  0  0  0  0  0  0  0  0  0
   19.4077   20.1656   23.9506 C   0  0  0  0  0  0  0  0  0  0  0  0
   19.5447   21.2109   23.6409 H   0  0  0  0  0  0  0  0  0  0  0  0
   18.4549   20.1475   24.4949 H   0  0  0  0  0  0  0  0  0  0  0  0
   20.5718   19.7697   24.9054 C   0  0  0  0  0  0  0  0  0  0  0  0
   20.9744   20.6873   25.3539 H   0  0  0  0  0  0  0  0  0  0  0  0
   21.4052   19.3376   24.3394 H   0  0  0  0  0  0  0  0  0  0  0  0
   20.2014   18.8116   26.0646 C   0  0  2  0  0  0  0  0  0  0  0  0
   21.1180   18.6263   26.6332 H   0  0  0  0  0  0  0  0  0  0  0  0
   19.6816   17.4516   25.5716 C   0  0  0  0  0  0  0  0  0  0  0  0
   19.5757   16.7545   26.4118 H   0  0  0  0  0  0  0  0  0  0  0  0
   18.7008   17.5467   25.0909 H   0  0  0  0  0  0  0  0  0  0  0  0
   20.3802   17.0039   24.8540 H   0  0  0  0  0  0  0  0  0  0  0  0
   19.2349   19.4347   27.0344 N   0  3  0  0  0  0  0  0  0  0  0  0
   19.0507   18.8152   27.8287 H   0  0  0  0  0  0  0  0  0  0  0  0
   18.3371   19.6361   26.5874 H   0  0  0  0  0  0  0  0  0  0  0  0
   19.5963   20.3158   27.4108 H   0  0  0  0  0  0  0  0  0  0  0  0
  1  2  1  0  0  0  0
  1  3  1  0  0  0  0
  1  4  1  0  0  0  0
  1  5  1  0  0  0  0
  5  6  1  0  0  0  0
  5  7  1  0  0  0  0
  5  8  1  0  0  0  0
  8  9  1  0  0  0  0
  8 10  1  0  0  0  0
  8 11  1  0  0  0  0
 11 12  1  0  0  0  0
 11 13  1  0  0  0  0
 11 14  1  0  0  0  0
 14 15  1  0  0  0  0
 14 16  1  0  0  0  0
 14 17  1  0  0  0  0
 17 18  1  0  0  0  0
 17 19  1  0  0  0  0
 17 20  1  0  0  0  0
 20 21  1  0  0  0  0
 20 22  1  0  0  0  0
 22 23  1  0  0  0  0
 22 24  1  0  0  0  0
 22 25  1  0  0  0  0
 20 26  1  0  0  0  0
 26 27  1  0  0  0  0
 26 28  1  0  0  0  0
 26 29  1  0  0  0  0
M  END
> <VM2 Rank>
156

> <Conf_Id>
870

> <Probability>
0.00

> <Sum Probability>
99.97

> <Delta G>
4.849

> <G>
38.551

> <E>
0.641

> <-TS>
37.910

> <U+W>
-23.504

> <U>
28.853

> <W>
-52.356

> <W(PB)>
-54.783

> <W(SA)>
2.427

> <Valence>
7.578

> <Coulomb>
19.889

> <VdW>
1.385

> <VdW6>
-10.700

> <VdW12>
12.085

> <Bond>
0.383

> <Angle>
2.315

> <Pdih>
4.881

> <Idih>
0.000

> <Tether>
0.000

$$$$
VeraChem MOL file


 29 28  0  0  0  0  0  0  0  0999 V2000     
   20.5481   20.4443   20.7000 C   0  0  0  0  0  0  0  0  0  0  0  0
   20.5809   21.5374   20.6070 H   0  0  0  0  0  0  0  0  0  0  0  0
   21.3149   20.1496   21.4262 H   0  0  0  0  0  0  0  0  0  0  0  0
   20.8195   20.0166   19.7262 H   0  0  0  0  0  0  0  0  0  0  0  0
   19.1390   19.9796   21.1335 C   0  0  0  0  0  0  0  0  0  0  0  0
   18.4075   20.3604   20.4073 H   0  0  0  0  0  0  0  0  0  0  0  0
   18.8660   20.4333   22.0946 H   0  0  0  0  0  0  0  0  0  0  0  0
   18.9987   18.4396   21.2083 C   0  0  0  0  0  0  0  0  0  0  0  0
   17.9495   18.1905   21.4182 H   0  0  0  0  0  0  0  0  0  0  0  0
   19.2098   18.0207   20.2148 H   0  0  0  0  0  0  0  0  0  0  0  0
   19.9015   17.7233   22.2487 C   0  0  0  0  0  0  0  0  0  0  0  0
   20.9632   17.8900   22.0240 H   0  0  0  0  0  0  0  0  0  0  0  0
   19.7458   16.6430   22.1219 H   0  0  0  0  0  0  0  0  0  0  0  0
   19.5933   18.0755   23.7279 C   0  0  0  0  0  0  0  0  0  0  0  0
   18.5343   18.3451   23.8315 H   0  0  0  0  0  0  0  0  0  0  0  0
   19.7360   17.1657   24.3255 H   0  0  0  0  0  0  0  0  0  0  0  0
   20.5075   19.1925   24.3026 C   0  0  0  0  0  0  0  0  0  0  0  0
   20.4384   20.0916   23.6819 H   0  0  0  0  0  0  0  0  0  0  0  0
   21.5545   18.8677   24.2412 H   0  0  0  0  0  0  0  0  0  0  0  0
   20.1997   19.5960   25.7639 C   0  0  2  0  0  0  0  0  0  0  0  0
   20.8932   20.3991   26.0320 H   0  0  0  0  0  0  0  0  0  0  0  0
   20.4299   18.4360   26.7481 C   0  0  0  0  0  0  0  0  0  0  0  0
   20.3404   18.7882   27.7831 H   0  0  0  0  0  0  0  0  0  0  0  0
   19.6994   17.6310   26.6047 H   0  0  0  0  0  0  0  0  0  0  0  0
   21.4355   18.0147   26.6261 H   0  0  0  0  0  0  0  0  0  0  0  0
   18.8182   20.1693   25.9208 N   0  3  0  0  0  0  0  0  0  0  0  0
   18.6731   20.9734   25.3037 H   0  0  0  0  0  0  0  0  0  0  0  0
   18.6516   20.4852   26.8805 H   0  0  0  0  0  0  0  0  0  0  0  0
   18.1013   19.4746   25.6972 H   0  0  0  0  0  0  0  0  0  0  0  0
  1  2  1  0  0  0  0
  1  3  1  0  0  0  0
  1  4  1  0  0  0  0
  1  5  1  0  0  0  0
  5  6  1  0  0  0  0
  5  7  1  0  0  0  0
  5  8  1  0  0  0  0
  8  9  1  0  0  0  0
  8 10  1  0  0  0  0
  8 11  1  0  0  0  0
 11 12  1  0  0  0  0
 11 13  1  0  0  0  0
 11 14  1  0  0  0  0
 14 15  1  0  0  0  0
 14 16  1  0  0  0  0
 14 17  1  0  0  0  0
 17 18  1  0  0  0  0
 17 19  1  0  0  0  0
 17 20  1  0  0  0  0
 20 21  1  0  0  0  0
 20 22  1  0  0  0  0
 22 23  1  0  0  0  0
 22 24  1  0  0  0  0
 22 25  1  0  0  0  0
 20 26  1  0  0  0  0
 26 27  1  0  0  0  0
 26 28  1  0  0  0  0
 26 29  1  0  0  0  0
M  END
> <VM2 Rank>
157

> <Conf_Id>
316

> <Probability>
0.00

> <Sum Probability>
99.98

> <Delta G>
4.934

> <G>
38.636

> <E>
0.284

> <-TS>
38.352

> <U+W>
-23.860

> <U>
28.974

> <W>
-52.834

> <W(PB)>
-55.217

> <W(SA)>
2.383

> <Valence>
7.347

> <Coulomb>
20.625

> <VdW>
1.002

> <VdW6>
-11.327

> <VdW12>
12.328

> <Bond>
0.364

> <Angle>
2.515

> <Pdih>
4.468

> <Idih>
0.000

> <Tether>
0.000

$$$$
VeraChem MOL file


 29 28  0  0  0  0  0  0  0  0999 V2000     
   19.4944   19.5163   19.1422 C   0  0  0  0  0  0  0  0  0  0  0  0
   18.7564   18.7632   18.8366 H   0  0  0  0  0  0  0  0  0  0  0  0
   19.0032   20.4981   19.1378 H   0  0  0  0  0  0  0  0  0  0  0  0
   20.2902   19.5341   18.3862 H   0  0  0  0  0  0  0  0  0  0  0  0
   20.0739   19.1928   20.5356 C   0  0  0  0  0  0  0  0  0  0  0  0
   20.8361   19.9423   20.7852 H   0  0  0  0  0  0  0  0  0  0  0  0
   20.5830   18.2196   20.5007 H   0  0  0  0  0  0  0  0  0  0  0  0
   18.9695   19.1662   21.6190 C   0  0  0  0  0  0  0  0  0  0  0  0
   18.4958   20.1548   21.6921 H   0  0  0  0  0  0  0  0  0  0  0  0
   18.1809   18.4700   21.3015 H   0  0  0  0  0  0  0  0  0  0  0  0
   19.4751   18.7256   23.0150 C   0  0  0  0  0  0  0  0  0  0  0  0
   19.9818   17.7542   22.9334 H   0  0  0  0  0  0  0  0  0  0  0  0
   18.5949   18.5709   23.6497 H   0  0  0  0  0  0  0  0  0  0  0  0
   20.4146   19.7572   23.6875 C   0  0  0  0  0  0  0  0  0  0  0  0
   21.2396   19.9927   23.0039 H   0  0  0  0  0  0  0  0  0  0  0  0
   19.8764   20.7025   23.8376 H   0  0  0  0  0  0  0  0  0  0  0  0
   21.0512   19.2883   25.0271 C   0  0  0  0  0  0  0  0  0  0  0  0
   21.7276   20.0857   25.3618 H   0  0  0  0  0  0  0  0  0  0  0  0
   21.6992   18.4213   24.8424 H   0  0  0  0  0  0  0  0  0  0  0  0
   20.0933   18.9781   26.2067 C   0  0  2  0  0  0  0  0  0  0  0  0
   20.6676   19.1351   27.1249 H   0  0  0  0  0  0  0  0  0  0  0  0
   19.6371   17.5074   26.2296 C   0  0  0  0  0  0  0  0  0  0  0  0
   19.0588   17.3018   27.1388 H   0  0  0  0  0  0  0  0  0  0  0  0
   19.0097   17.2485   25.3718 H   0  0  0  0  0  0  0  0  0  0  0  0
   20.5024   16.8332   26.2324 H   0  0  0  0  0  0  0  0  0  0  0  0
   18.9269   19.9241   26.2912 N   0  3  0  0  0  0  0  0  0  0  0  0
   18.3360   19.8545   25.4591 H   0  0  0  0  0  0  0  0  0  0  0  0
   19.2402   20.8961   26.3668 H   0  0  0  0  0  0  0  0  0  0  0  0
   18.3410   19.7256   27.1073 H   0  0  0  0  0  0  0  0  0  0  0  0
  1  2  1  0  0  0  0
  1  3  1  0  0  0  0
  1  4  1  0  0  0  0
  1  5  1  0  0  0  0
  5  6  1  0  0  0  0
  5  7  1  0  0  0  0
  5  8  1  0  0  0  0
  8  9  1  0  0  0  0
  8 10  1  0  0  0  0
  8 11  1  0  0  0  0
 11 12  1  0  0  0  0
 11 13  1  0  0  0  0
 11 14  1  0  0  0  0
 14 15  1  0  0  0  0
 14 16  1  0  0  0  0
 14 17  1  0  0  0  0
 17 18  1  0  0  0  0
 17 19  1  0  0  0  0
 17 20  1  0  0  0  0
 20 21  1  0  0  0  0
 20 22  1  0  0  0  0
 22 23  1  0  0  0  0
 22 24  1  0  0  0  0
 22 25  1  0  0  0  0
 20 26  1  0  0  0  0
 26 27  1  0  0  0  0
 26 28  1  0  0  0  0
 26 29  1  0  0  0  0
M  END
> <VM2 Rank>
158

> <Conf_Id>
314

> <Probability>
0.00

> <Sum Probability>
99.98

> <Delta G>
5.031

> <G>
38.733

> <E>
0.814

> <-TS>
37.919

> <U+W>
-23.330

> <U>
28.836

> <W>
-52.166

> <W(PB)>
-54.631

> <W(SA)>
2.465

> <Valence>
6.993

> <Coulomb>
20.553

> <VdW>
1.290

> <VdW6>
-10.457

> <VdW12>
11.747

> <Bond>
0.348

> <Angle>
2.717

> <Pdih>
3.927

> <Idih>
0.000

> <Tether>
0.000

$$$$
VeraChem MOL file


 29 28  0  0  0  0  0  0  0  0999 V2000     
   19.6482   20.4689   19.8921 C   0  0  0  0  0  0  0  0  0  0  0  0
   20.3643   20.4967   19.0606 H   0  0  0  0  0  0  0  0  0  0  0  0
   18.6416   20.3654   19.4664 H   0  0  0  0  0  0  0  0  0  0  0  0
   19.7011   21.4326   20.4151 H   0  0  0  0  0  0  0  0  0  0  0  0
   19.9693   19.3010   20.8485 C   0  0  0  0  0  0  0  0  0  0  0  0
   20.9951   19.4182   21.2223 H   0  0  0  0  0  0  0  0  0  0  0  0
   19.9388   18.3543   20.2913 H   0  0  0  0  0  0  0  0  0  0  0  0
   18.9746   19.2433   22.0314 C   0  0  0  0  0  0  0  0  0  0  0  0
   19.0351   20.1766   22.6041 H   0  0  0  0  0  0  0  0  0  0  0  0
   17.9517   19.1972   21.6331 H   0  0  0  0  0  0  0  0  0  0  0  0
   19.1920   18.0215   22.9617 C   0  0  0  0  0  0  0  0  0  0  0  0
   19.0569   17.1053   22.3706 H   0  0  0  0  0  0  0  0  0  0  0  0
   18.3998   17.9915   23.7193 H   0  0  0  0  0  0  0  0  0  0  0  0
   20.5793   17.9542   23.6543 C   0  0  0  0  0  0  0  0  0  0  0  0
   20.6241   17.0449   24.2678 H   0  0  0  0  0  0  0  0  0  0  0  0
   21.3501   17.8101   22.8859 H   0  0  0  0  0  0  0  0  0  0  0  0
   20.9784   19.1843   24.5210 C   0  0  0  0  0  0  0  0  0  0  0  0
   21.0392   20.0803   23.8906 H   0  0  0  0  0  0  0  0  0  0  0  0
   22.0033   19.0171   24.8776 H   0  0  0  0  0  0  0  0  0  0  0  0
   20.1033   19.4922   25.7634 C   0  0  2  0  0  0  0  0  0  0  0  0
   20.6424   20.2403   26.3527 H   0  0  0  0  0  0  0  0  0  0  0  0
   19.9038   18.2594   26.6619 C   0  0  0  0  0  0  0  0  0  0  0  0
   19.2792   17.5009   26.1751 H   0  0  0  0  0  0  0  0  0  0  0  0
   20.8684   17.8020   26.9146 H   0  0  0  0  0  0  0  0  0  0  0  0
   19.4142   18.5442   27.6012 H   0  0  0  0  0  0  0  0  0  0  0  0
   18.7870   20.1312   25.4197 N   0  3  0  0  0  0  0  0  0  0  0  0
   18.9201   21.0109   24.9131 H   0  0  0  0  0  0  0  0  0  0  0  0
   18.2431   20.3415   26.2616 H   0  0  0  0  0  0  0  0  0  0  0  0
   18.2229   19.5158   24.8295 H   0  0  0  0  0  0  0  0  0  0  0  0
  1  2  1  0  0  0  0
  1  3  1  0  0  0  0
  1  4  1  0  0  0  0
  1  5  1  0  0  0  0
  5  6  1  0  0  0  0
  5  7  1  0  0  0  0
  5  8  1  0  0  0  0
  8  9  1  0  0  0  0
  8 10  1  0  0  0  0
  8 11  1  0  0  0  0
 11 12  1  0  0  0  0
 11 13  1  0  0  0  0
 11 14  1  0  0  0  0
 14 15  1  0  0  0  0
 14 16  1  0  0  0  0
 14 17  1  0  0  0  0
 17 18  1  0  0  0  0
 17 19  1  0  0  0  0
 17 20  1  0  0  0  0
 20 21  1  0  0  0  0
 20 22  1  0  0  0  0
 22 23  1  0  0  0  0
 22 24  1  0  0  0  0
 22 25  1  0  0  0  0
 20 26  1  0  0  0  0
 26 27  1  0  0  0  0
 26 28  1  0  0  0  0
 26 29  1  0  0  0  0
M  END
> <VM2 Rank>
159

> <Conf_Id>
297

> <Probability>
0.00

> <Sum Probability>
99.98

> <Delta G>
5.045

> <G>
38.747

> <E>
0.098

> <-TS>
38.649

> <U+W>
-24.047

> <U>
28.518

> <W>
-52.565

> <W(PB)>
-54.941

> <W(SA)>
2.376

> <Valence>
6.049

> <Coulomb>
21.789

> <VdW>
0.681

> <VdW6>
-12.165

> <VdW12>
12.846

> <Bond>
0.399

> <Angle>
2.964

> <Pdih>
2.686

> <Idih>
0.000

> <Tether>
0.000

$$$$
VeraChem MOL file


 29 28  0  0  0  0  0  0  0  0999 V2000     
   18.2990   18.5352   20.7150 C   0  0  0  0  0  0  0  0  0  0  0  0
   17.7340   19.3002   21.2615 H   0  0  0  0  0  0  0  0  0  0  0  0
   17.8168   18.4047   19.7375 H   0  0  0  0  0  0  0  0  0  0  0  0
   18.2125   17.5867   21.2607 H   0  0  0  0  0  0  0  0  0  0  0  0
   19.7797   18.9407   20.5369 C   0  0  0  0  0  0  0  0  0  0  0  0
   19.8396   19.9020   20.0078 H   0  0  0  0  0  0  0  0  0  0  0  0
   20.2732   18.2022   19.8898 H   0  0  0  0  0  0  0  0  0  0  0  0
   20.5559   19.0279   21.8726 C   0  0  0  0  0  0  0  0  0  0  0  0
   20.4977   18.0593   22.3845 H   0  0  0  0  0  0  0  0  0  0  0  0
   21.6185   19.1952   21.6495 H   0  0  0  0  0  0  0  0  0  0  0  0
   20.0530   20.1619   22.8014 C   0  0  0  0  0  0  0  0  0  0  0  0
   19.0061   20.0025   23.0801 H   0  0  0  0  0  0  0  0  0  0  0  0
   20.0689   21.1068   22.2411 H   0  0  0  0  0  0  0  0  0  0  0  0
   20.9156   20.3412   24.0754 C   0  0  0  0  0  0  0  0  0  0  0  0
   21.9312   20.6214   23.7633 H   0  0  0  0  0  0  0  0  0  0  0  0
   20.5414   21.2056   24.6399 H   0  0  0  0  0  0  0  0  0  0  0  0
   21.0260   19.1100   25.0229 C   0  0  0  0  0  0  0  0  0  0  0  0
   21.7207   19.3866   25.8267 H   0  0  0  0  0  0  0  0  0  0  0  0
   21.5148   18.2752   24.5051 H   0  0  0  0  0  0  0  0  0  0  0  0
   19.7244   18.6138   25.7058 C   0  0  2  0  0  0  0  0  0  0  0  0
   20.0321   18.0858   26.6136 H   0  0  0  0  0  0  0  0  0  0  0  0
   18.9488   17.5920   24.8548 C   0  0  0  0  0  0  0  0  0  0  0  0
   19.6017   16.7664   24.5462 H   0  0  0  0  0  0  0  0  0  0  0  0
   18.1261   17.1593   25.4370 H   0  0  0  0  0  0  0  0  0  0  0  0
   18.5159   18.0397   23.9557 H   0  0  0  0  0  0  0  0  0  0  0  0
   18.8336   19.7334   26.1692 N   0  3  0  0  0  0  0  0  0  0  0  0
   18.0120   19.3778   26.6662 H   0  0  0  0  0  0  0  0  0  0  0  0
   18.5018   20.2899   25.3776 H   0  0  0  0  0  0  0  0  0  0  0  0
   19.3285   20.3650   26.8054 H   0  0  0  0  0  0  0  0  0  0  0  0
  1  2  1  0  0  0  0
  1  3  1  0  0  0  0
  1  4  1  0  0  0  0
  1  5  1  0  0  0  0
  5  6  1  0  0  0  0
  5  7  1  0  0  0  0
  5  8  1  0  0  0  0
  8  9  1  0  0  0  0
  8 10  1  0  0  0  0
  8 11  1  0  0  0  0
 11 12  1  0  0  0  0
 11 13  1  0  0  0  0
 11 14  1  0  0  0  0
 14 15  1  0  0  0  0
 14 16  1  0  0  0  0
 14 17  1  0  0  0  0
 17 18  1  0  0  0  0
 17 19  1  0  0  0  0
 17 20  1  0  0  0  0
 20 21  1  0  0  0  0
 20 22  1  0  0  0  0
 22 23  1  0  0  0  0
 22 24  1  0  0  0  0
 22 25  1  0  0  0  0
 20 26  1  0  0  0  0
 26 27  1  0  0  0  0
 26 28  1  0  0  0  0
 26 29  1  0  0  0  0
M  END
> <VM2 Rank>
160

> <Conf_Id>
1370

> <Probability>
0.00

> <Sum Probability>
99.98

> <Delta G>
5.120

> <G>
38.822

> <E>
0.158

> <-TS>
38.664

> <U+W>
-23.987

> <U>
28.728

> <W>
-52.715

> <W(PB)>
-55.059

> <W(SA)>
2.345

> <Valence>
7.346

> <Coulomb>
20.700

> <VdW>
0.681

> <VdW6>
-12.200

> <VdW12>
12.882

> <Bond>
0.393

> <Angle>
3.198

> <Pdih>
3.755

> <Idih>
0.000

> <Tether>
0.000

$$$$
VeraChem MOL file


 29 28  0  0  0  0  0  0  0  0999 V2000     
   19.9304   19.2163   19.7926 C   0  0  0  0  0  0  0  0  0  0  0  0
   19.4516   20.1074   19.3663 H   0  0  0  0  0  0  0  0  0  0  0  0
   20.9478   19.4868   20.1011 H   0  0  0  0  0  0  0  0  0  0  0  0
   20.0150   18.4663   18.9956 H   0  0  0  0  0  0  0  0  0  0  0  0
   19.1093   18.6577   20.9765 C   0  0  0  0  0  0  0  0  0  0  0  0
   19.6164   17.7789   21.3966 H   0  0  0  0  0  0  0  0  0  0  0  0
   18.1437   18.2958   20.5969 H   0  0  0  0  0  0  0  0  0  0  0  0
   18.8418   19.7041   22.0879 C   0  0  0  0  0  0  0  0  0  0  0  0
   18.2564   20.5302   21.6612 H   0  0  0  0  0  0  0  0  0  0  0  0
   18.1976   19.2492   22.8505 H   0  0  0  0  0  0  0  0  0  0  0  0
   20.1139   20.2917   22.7570 C   0  0  0  0  0  0  0  0  0  0  0  0
   19.8219   21.0341   23.5089 H   0  0  0  0  0  0  0  0  0  0  0  0
   20.6775   20.8639   22.0083 H   0  0  0  0  0  0  0  0  0  0  0  0
   21.0687   19.2472   23.3947 C   0  0  0  0  0  0  0  0  0  0  0  0
   21.5086   18.6394   22.5928 H   0  0  0  0  0  0  0  0  0  0  0  0
   21.9145   19.7781   23.8528 H   0  0  0  0  0  0  0  0  0  0  0  0
   20.4481   18.2905   24.4498 C   0  0  0  0  0  0  0  0  0  0  0  0
   21.2149   17.5421   24.6903 H   0  0  0  0  0  0  0  0  0  0  0  0
   19.6113   17.7255   24.0205 H   0  0  0  0  0  0  0  0  0  0  0  0
   20.0115   18.9763   25.7658 C   0  0  2  0  0  0  0  0  0  0  0  0
   20.7806   19.7027   26.0457 H   0  0  0  0  0  0  0  0  0  0  0  0
   19.8937   17.9403   26.8957 C   0  0  0  0  0  0  0  0  0  0  0  0
   19.1430   17.1765   26.6569 H   0  0  0  0  0  0  0  0  0  0  0  0
   20.8531   17.4356   27.0652 H   0  0  0  0  0  0  0  0  0  0  0  0
   19.6032   18.4231   27.8370 H   0  0  0  0  0  0  0  0  0  0  0  0
   18.7187   19.7319   25.6341 N   0  3  0  0  0  0  0  0  0  0  0  0
   18.7669   20.4178   24.8769 H   0  0  0  0  0  0  0  0  0  0  0  0
   18.4896   20.2344   26.4965 H   0  0  0  0  0  0  0  0  0  0  0  0
   17.9398   19.1001   25.4308 H   0  0  0  0  0  0  0  0  0  0  0  0
  1  2  1  0  0  0  0
  1  3  1  0  0  0  0
  1  4  1  0  0  0  0
  1  5  1  0  0  0  0
  5  6  1  0  0  0  0
  5  7  1  0  0  0  0
  5  8  1  0  0  0  0
  8  9  1  0  0  0  0
  8 10  1  0  0  0  0
  8 11  1  0  0  0  0
 11 12  1  0  0  0  0
 11 13  1  0  0  0  0
 11 14  1  0  0  0  0
 14 15  1  0  0  0  0
 14 16  1  0  0  0  0
 14 17  1  0  0  0  0
 17 18  1  0  0  0  0
 17 19  1  0  0  0  0
 17 20  1  0  0  0  0
 20 21  1  0  0  0  0
 20 22  1  0  0  0  0
 22 23  1  0  0  0  0
 22 24  1  0  0  0  0
 22 25  1  0  0  0  0
 20 26  1  0  0  0  0
 26 27  1  0  0  0  0
 26 28  1  0  0  0  0
 26 29  1  0  0  0  0
M  END
> <VM2 Rank>
161

> <Conf_Id>
604

> <Probability>
0.00

> <Sum Probability>
99.98

> <Delta G>
5.197

> <G>
38.899

> <E>
0.347

> <-TS>
38.552

> <U+W>
-23.798

> <U>
28.626

> <W>
-52.424

> <W(PB)>
-54.799

> <W(SA)>
2.375

> <Valence>
6.309

> <Coulomb>
21.583

> <VdW>
0.734

> <VdW6>
-12.082

> <VdW12>
12.816

> <Bond>
0.385

> <Angle>
2.789

> <Pdih>
3.135

> <Idih>
0.000

> <Tether>
0.000

$$$$
VeraChem MOL file


 29 28  0  0  0  0  0  0  0  0999 V2000     
   20.6741   18.7248   19.7783 C   0  0  0  0  0  0  0  0  0  0  0  0
   21.5262   18.1795   20.2045 H   0  0  0  0  0  0  0  0  0  0  0  0
   20.0191   17.9993   19.2784 H   0  0  0  0  0  0  0  0  0  0  0  0
   21.0612   19.4114   19.0142 H   0  0  0  0  0  0  0  0  0  0  0  0
   19.9101   19.5013   20.8715 C   0  0  0  0  0  0  0  0  0  0  0  0
   19.0831   20.0601   20.4118 H   0  0  0  0  0  0  0  0  0  0  0  0
   20.5852   20.2422   21.3201 H   0  0  0  0  0  0  0  0  0  0  0  0
   19.3579   18.5543   21.9624 C   0  0  0  0  0  0  0  0  0  0  0  0
   18.7422   17.7805   21.4838 H   0  0  0  0  0  0  0  0  0  0  0  0
   20.1893   18.0241   22.4431 H   0  0  0  0  0  0  0  0  0  0  0  0
   18.4929   19.2757   23.0285 C   0  0  0  0  0  0  0  0  0  0  0  0
   18.0678   18.5355   23.7164 H   0  0  0  0  0  0  0  0  0  0  0  0
   17.6274   19.7293   22.5261 H   0  0  0  0  0  0  0  0  0  0  0  0
   19.2222   20.3809   23.8364 C   0  0  0  0  0  0  0  0  0  0  0  0
   19.4764   21.2011   23.1522 H   0  0  0  0  0  0  0  0  0  0  0  0
   18.5144   20.8237   24.5493 H   0  0  0  0  0  0  0  0  0  0  0  0
   20.5200   19.9572   24.5861 C   0  0  0  0  0  0  0  0  0  0  0  0
   20.9588   20.8714   25.0066 H   0  0  0  0  0  0  0  0  0  0  0  0
   21.2680   19.5893   23.8725 H   0  0  0  0  0  0  0  0  0  0  0  0
   20.3728   18.9519   25.7584 C   0  0  2  0  0  0  0  0  0  0  0  0
   21.2469   19.0951   26.4012 H   0  0  0  0  0  0  0  0  0  0  0  0
   20.4078   17.4824   25.3030 C   0  0  0  0  0  0  0  0  0  0  0  0
   19.5203   17.2035   24.7276 H   0  0  0  0  0  0  0  0  0  0  0  0
   21.2937   17.2861   24.6866 H   0  0  0  0  0  0  0  0  0  0  0  0
   20.4596   16.8165   26.1730 H   0  0  0  0  0  0  0  0  0  0  0  0
   19.1782   19.2274   26.6294 N   0  3  0  0  0  0  0  0  0  0  0  0
   19.1980   20.1819   26.9997 H   0  0  0  0  0  0  0  0  0  0  0  0
   19.1410   18.5880   27.4283 H   0  0  0  0  0  0  0  0  0  0  0  0
   18.3076   19.1180   26.1034 H   0  0  0  0  0  0  0  0  0  0  0  0
  1  2  1  0  0  0  0
  1  3  1  0  0  0  0
  1  4  1  0  0  0  0
  1  5  1  0  0  0  0
  5  6  1  0  0  0  0
  5  7  1  0  0  0  0
  5  8  1  0  0  0  0
  8  9  1  0  0  0  0
  8 10  1  0  0  0  0
  8 11  1  0  0  0  0
 11 12  1  0  0  0  0
 11 13  1  0  0  0  0
 11 14  1  0  0  0  0
 14 15  1  0  0  0  0
 14 16  1  0  0  0  0
 14 17  1  0  0  0  0
 17 18  1  0  0  0  0
 17 19  1  0  0  0  0
 17 20  1  0  0  0  0
 20 21  1  0  0  0  0
 20 22  1  0  0  0  0
 22 23  1  0  0  0  0
 22 24  1  0  0  0  0
 22 25  1  0  0  0  0
 20 26  1  0  0  0  0
 26 27  1  0  0  0  0
 26 28  1  0  0  0  0
 26 29  1  0  0  0  0
M  END
> <VM2 Rank>
162

> <Conf_Id>
286

> <Probability>
0.00

> <Sum Probability>
99.99

> <Delta G>
5.237

> <G>
38.939

> <E>
0.259

> <-TS>
38.679

> <U+W>
-23.885

> <U>
28.682

> <W>
-52.568

> <W(PB)>
-54.935

> <W(SA)>
2.367

> <Valence>
7.341

> <Coulomb>
20.552

> <VdW>
0.790

> <VdW6>
-12.015

> <VdW12>
12.806

> <Bond>
0.401

> <Angle>
3.356

> <Pdih>
3.584

> <Idih>
0.000

> <Tether>
0.000

$$$$
VeraChem MOL file


 29 28  0  0  0  0  0  0  0  0999 V2000     
   20.0152   19.8031   19.7917 C   0  0  0  0  0  0  0  0  0  0  0  0
   20.9170   20.1962   20.2773 H   0  0  0  0  0  0  0  0  0  0  0  0
   20.3056   18.9462   19.1702 H   0  0  0  0  0  0  0  0  0  0  0  0
   19.6293   20.5859   19.1260 H   0  0  0  0  0  0  0  0  0  0  0  0
   18.9440   19.3977   20.8292 C   0  0  0  0  0  0  0  0  0  0  0  0
   18.0275   19.1086   20.2963 H   0  0  0  0  0  0  0  0  0  0  0  0
   18.6729   20.2666   21.4436 H   0  0  0  0  0  0  0  0  0  0  0  0
   19.3820   18.2185   21.7339 C   0  0  0  0  0  0  0  0  0  0  0  0
   18.5490   17.9479   22.3952 H   0  0  0  0  0  0  0  0  0  0  0  0
   19.5500   17.3346   21.1033 H   0  0  0  0  0  0  0  0  0  0  0  0
   20.6605   18.4686   22.5799 C   0  0  0  0  0  0  0  0  0  0  0  0
   21.5239   18.5319   21.9043 H   0  0  0  0  0  0  0  0  0  0  0  0
   20.8451   17.5817   23.1965 H   0  0  0  0  0  0  0  0  0  0  0  0
   20.6416   19.7436   23.4698 C   0  0  0  0  0  0  0  0  0  0  0  0
   21.6162   19.8558   23.9644 H   0  0  0  0  0  0  0  0  0  0  0  0
   20.5533   20.6207   22.8155 H   0  0  0  0  0  0  0  0  0  0  0  0
   19.5130   19.8081   24.5368 C   0  0  0  0  0  0  0  0  0  0  0  0
   18.6071   19.3026   24.1841 H   0  0  0  0  0  0  0  0  0  0  0  0
   19.2318   20.8632   24.6519 H   0  0  0  0  0  0  0  0  0  0  0  0
   19.9015   19.2835   25.9400 C   0  0  2  0  0  0  0  0  0  0  0  0
   20.7673   19.8540   26.2900 H   0  0  0  0  0  0  0  0  0  0  0  0
   20.2778   17.7928   25.9416 C   0  0  0  0  0  0  0  0  0  0  0  0
   19.4966   17.1839   25.4699 H   0  0  0  0  0  0  0  0  0  0  0  0
   21.2214   17.6276   25.4099 H   0  0  0  0  0  0  0  0  0  0  0  0
   20.4212   17.4301   26.9669 H   0  0  0  0  0  0  0  0  0  0  0  0
   18.8003   19.5401   26.9311 N   0  3  0  0  0  0  0  0  0  0  0  0
   17.9469   19.0334   26.6807 H   0  0  0  0  0  0  0  0  0  0  0  0
   18.5639   20.5352   26.9832 H   0  0  0  0  0  0  0  0  0  0  0  0
   19.0681   19.2409   27.8731 H   0  0  0  0  0  0  0  0  0  0  0  0
  1  2  1  0  0  0  0
  1  3  1  0  0  0  0
  1  4  1  0  0  0  0
  1  5  1  0  0  0  0
  5  6  1  0  0  0  0
  5  7  1  0  0  0  0
  5  8  1  0  0  0  0
  8  9  1  0  0  0  0
  8 10  1  0  0  0  0
  8 11  1  0  0  0  0
 11 12  1  0  0  0  0
 11 13  1  0  0  0  0
 11 14  1  0  0  0  0
 14 15  1  0  0  0  0
 14 16  1  0  0  0  0
 14 17  1  0  0  0  0
 17 18  1  0  0  0  0
 17 19  1  0  0  0  0
 17 20  1  0  0  0  0
 20 21  1  0  0  0  0
 20 22  1  0  0  0  0
 22 23  1  0  0  0  0
 22 24  1  0  0  0  0
 22 25  1  0  0  0  0
 20 26  1  0  0  0  0
 26 27  1  0  0  0  0
 26 28  1  0  0  0  0
 26 29  1  0  0  0  0
M  END
> <VM2 Rank>
163

> <Conf_Id>
962

> <Probability>
0.00

> <Sum Probability>
99.99

> <Delta G>
5.287

> <G>
38.989

> <E>
0.820

> <-TS>
38.169

> <U+W>
-23.325

> <U>
29.270

> <W>
-52.595

> <W(PB)>
-54.996

> <W(SA)>
2.401

> <Valence>
7.971

> <Coulomb>
20.084

> <VdW>
1.216

> <VdW6>
-11.598

> <VdW12>
12.814

> <Bond>
0.421

> <Angle>
3.122

> <Pdih>
4.428

> <Idih>
0.000

> <Tether>
0.000

$$$$
VeraChem MOL file


 29 28  0  0  0  0  0  0  0  0999 V2000     
   19.5810   19.6092   19.7809 C   0  0  0  0  0  0  0  0  0  0  0  0
   18.7758   19.7222   19.0435 H   0  0  0  0  0  0  0  0  0  0  0  0
   19.7955   20.6038   20.1912 H   0  0  0  0  0  0  0  0  0  0  0  0
   20.4749   19.2553   19.2511 H   0  0  0  0  0  0  0  0  0  0  0  0
   19.1642   18.6171   20.8899 C   0  0  0  0  0  0  0  0  0  0  0  0
   18.8507   17.6742   20.4208 H   0  0  0  0  0  0  0  0  0  0  0  0
   18.2797   18.9996   21.4165 H   0  0  0  0  0  0  0  0  0  0  0  0
   20.2983   18.3118   21.9009 C   0  0  0  0  0  0  0  0  0  0  0  0
   19.9391   17.5595   22.6143 H   0  0  0  0  0  0  0  0  0  0  0  0
   21.1311   17.8362   21.3650 H   0  0  0  0  0  0  0  0  0  0  0  0
   20.8457   19.5439   22.6719 C   0  0  0  0  0  0  0  0  0  0  0  0
   21.3315   20.2238   21.9596 H   0  0  0  0  0  0  0  0  0  0  0  0
   21.6481   19.2227   23.3476 H   0  0  0  0  0  0  0  0  0  0  0  0
   19.7854   20.3437   23.4726 C   0  0  0  0  0  0  0  0  0  0  0  0
   20.2776   21.2056   23.9439 H   0  0  0  0  0  0  0  0  0  0  0  0
   19.0581   20.7735   22.7713 H   0  0  0  0  0  0  0  0  0  0  0  0
   19.0173   19.5507   24.5635 C   0  0  0  0  0  0  0  0  0  0  0  0
   18.5011   18.6851   24.1297 H   0  0  0  0  0  0  0  0  0  0  0  0
   18.2189   20.2099   24.9289 H   0  0  0  0  0  0  0  0  0  0  0  0
   19.8910   19.1227   25.7687 C   0  0  2  0  0  0  0  0  0  0  0  0
   20.7518   19.7960   25.8247 H   0  0  0  0  0  0  0  0  0  0  0  0
   20.4008   17.6763   25.6360 C   0  0  0  0  0  0  0  0  0  0  0  0
   21.0281   17.5477   24.7488 H   0  0  0  0  0  0  0  0  0  0  0  0
   21.0094   17.4013   26.5063 H   0  0  0  0  0  0  0  0  0  0  0  0
   19.5666   16.9668   25.5692 H   0  0  0  0  0  0  0  0  0  0  0  0
   19.1522   19.2805   27.0695 N   0  3  0  0  0  0  0  0  0  0  0  0
   18.8426   20.2464   27.2120 H   0  0  0  0  0  0  0  0  0  0  0  0
   19.7429   19.0293   27.8675 H   0  0  0  0  0  0  0  0  0  0  0  0
   18.3224   18.6822   27.1030 H   0  0  0  0  0  0  0  0  0  0  0  0
  1  2  1  0  0  0  0
  1  3  1  0  0  0  0
  1  4  1  0  0  0  0
  1  5  1  0  0  0  0
  5  6  1  0  0  0  0
  5  7  1  0  0  0  0
  5  8  1  0  0  0  0
  8  9  1  0  0  0  0
  8 10  1  0  0  0  0
  8 11  1  0  0  0  0
 11 12  1  0  0  0  0
 11 13  1  0  0  0  0
 11 14  1  0  0  0  0
 14 15  1  0  0  0  0
 14 16  1  0  0  0  0
 14 17  1  0  0  0  0
 17 18  1  0  0  0  0
 17 19  1  0  0  0  0
 17 20  1  0  0  0  0
 20 21  1  0  0  0  0
 20 22  1  0  0  0  0
 22 23  1  0  0  0  0
 22 24  1  0  0  0  0
 22 25  1  0  0  0  0
 20 26  1  0  0  0  0
 26 27  1  0  0  0  0
 26 28  1  0  0  0  0
 26 29  1  0  0  0  0
M  END
> <VM2 Rank>
164

> <Conf_Id>
928

> <Probability>
0.00

> <Sum Probability>
99.99

> <Delta G>
5.300

> <G>
39.002

> <E>
0.462

> <-TS>
38.540

> <U+W>
-23.683

> <U>
28.897

> <W>
-52.580

> <W(PB)>
-54.963

> <W(SA)>
2.383

> <Valence>
7.883

> <Coulomb>
20.100

> <VdW>
0.914

> <VdW6>
-11.910

> <VdW12>
12.824

> <Bond>
0.365

> <Angle>
2.784

> <Pdih>
4.734

> <Idih>
0.000

> <Tether>
0.000

$$$$
VeraChem MOL file


 29 28  0  0  0  0  0  0  0  0999 V2000     
   19.4658   20.0175   19.6999 C   0  0  0  0  0  0  0  0  0  0  0  0
   20.2840   20.6895   19.9871 H   0  0  0  0  0  0  0  0  0  0  0  0
   19.8979   19.1464   19.1906 H   0  0  0  0  0  0  0  0  0  0  0  0
   18.8387   20.5530   18.9754 H   0  0  0  0  0  0  0  0  0  0  0  0
   18.6281   19.5860   20.9248 C   0  0  0  0  0  0  0  0  0  0  0  0
   17.7525   19.0229   20.5725 H   0  0  0  0  0  0  0  0  0  0  0  0
   18.2354   20.4764   21.4351 H   0  0  0  0  0  0  0  0  0  0  0  0
   19.4113   18.7063   21.9290 C   0  0  0  0  0  0  0  0  0  0  0  0
   18.7070   18.3498   22.6902 H   0  0  0  0  0  0  0  0  0  0  0  0
   19.7848   17.8096   21.4157 H   0  0  0  0  0  0  0  0  0  0  0  0
   20.5948   19.4464   22.6033 C   0  0  0  0  0  0  0  0  0  0  0  0
   20.2568   20.3892   23.0498 H   0  0  0  0  0  0  0  0  0  0  0  0
   21.3212   19.7331   21.8317 H   0  0  0  0  0  0  0  0  0  0  0  0
   21.3453   18.5918   23.6568 C   0  0  0  0  0  0  0  0  0  0  0  0
   21.7905   17.7253   23.1485 H   0  0  0  0  0  0  0  0  0  0  0  0
   22.1925   19.1773   24.0401 H   0  0  0  0  0  0  0  0  0  0  0  0
   20.5131   18.0770   24.8639 C   0  0  0  0  0  0  0  0  0  0  0  0
   21.1890   17.4686   25.4795 H   0  0  0  0  0  0  0  0  0  0  0  0
   19.7256   17.3898   24.5301 H   0  0  0  0  0  0  0  0  0  0  0  0
   19.9082   19.1893   25.7527 C   0  0  2  0  0  0  0  0  0  0  0  0
   20.6444   19.9937   25.8448 H   0  0  0  0  0  0  0  0  0  0  0  0
   19.6062   18.6486   27.1600 C   0  0  0  0  0  0  0  0  0  0  0  0
   20.5204   18.2791   27.6413 H   0  0  0  0  0  0  0  0  0  0  0  0
   19.1919   19.4381   27.7991 H   0  0  0  0  0  0  0  0  0  0  0  0
   18.8828   17.8244   27.1215 H   0  0  0  0  0  0  0  0  0  0  0  0
   18.6632   19.7932   25.1636 N   0  3  0  0  0  0  0  0  0  0  0  0
   18.3316   20.5859   25.7209 H   0  0  0  0  0  0  0  0  0  0  0  0
   17.9039   19.1083   25.1225 H   0  0  0  0  0  0  0  0  0  0  0  0
   18.8303   20.1269   24.2107 H   0  0  0  0  0  0  0  0  0  0  0  0
  1  2  1  0  0  0  0
  1  3  1  0  0  0  0
  1  4  1  0  0  0  0
  1  5  1  0  0  0  0
  5  6  1  0  0  0  0
  5  7  1  0  0  0  0
  5  8  1  0  0  0  0
  8  9  1  0  0  0  0
  8 10  1  0  0  0  0
  8 11  1  0  0  0  0
 11 12  1  0  0  0  0
 11 13  1  0  0  0  0
 11 14  1  0  0  0  0
 14 15  1  0  0  0  0
 14 16  1  0  0  0  0
 14 17  1  0  0  0  0
 17 18  1  0  0  0  0
 17 19  1  0  0  0  0
 17 20  1  0  0  0  0
 20 21  1  0  0  0  0
 20 22  1  0  0  0  0
 22 23  1  0  0  0  0
 22 24  1  0  0  0  0
 22 25  1  0  0  0  0
 20 26  1  0  0  0  0
 26 27  1  0  0  0  0
 26 28  1  0  0  0  0
 26 29  1  0  0  0  0
M  END
> <VM2 Rank>
165

> <Conf_Id>
830

> <Probability>
0.00

> <Sum Probability>
99.99

> <Delta G>
5.470

> <G>
39.172

> <E>
0.985

> <-TS>
38.187

> <U+W>
-23.160

> <U>
28.492

> <W>
-51.652

> <W(PB)>
-54.090

> <W(SA)>
2.439

> <Valence>
6.023

> <Coulomb>
21.518

> <VdW>
0.951

> <VdW6>
-11.103

> <VdW12>
12.053

> <Bond>
0.333

> <Angle>
2.459

> <Pdih>
3.231

> <Idih>
0.000

> <Tether>
0.000

$$$$
VeraChem MOL file


 29 28  0  0  0  0  0  0  0  0999 V2000     
   20.5441   18.6764   20.0229 C   0  0  0  0  0  0  0  0  0  0  0  0
   21.2750   18.4807   20.8174 H   0  0  0  0  0  0  0  0  0  0  0  0
   20.0572   17.7282   19.7609 H   0  0  0  0  0  0  0  0  0  0  0  0
   21.0989   19.0244   19.1421 H   0  0  0  0  0  0  0  0  0  0  0  0
   19.5041   19.7326   20.4597 C   0  0  0  0  0  0  0  0  0  0  0  0
   18.8743   19.9864   19.5957 H   0  0  0  0  0  0  0  0  0  0  0  0
   20.0156   20.6631   20.7389 H   0  0  0  0  0  0  0  0  0  0  0  0
   18.5856   19.2554   21.6139 C   0  0  0  0  0  0  0  0  0  0  0  0
   17.8738   20.0569   21.8544 H   0  0  0  0  0  0  0  0  0  0  0  0
   17.9784   18.4136   21.2534 H   0  0  0  0  0  0  0  0  0  0  0  0
   19.3121   18.8178   22.9126 C   0  0  0  0  0  0  0  0  0  0  0  0
   19.9628   17.9578   22.7069 H   0  0  0  0  0  0  0  0  0  0  0  0
   18.5450   18.4648   23.6111 H   0  0  0  0  0  0  0  0  0  0  0  0
   20.1298   19.9514   23.5795 C   0  0  0  0  0  0  0  0  0  0  0  0
   20.8333   20.3647   22.8459 H   0  0  0  0  0  0  0  0  0  0  0  0
   19.4609   20.7796   23.8487 H   0  0  0  0  0  0  0  0  0  0  0  0
   20.9658   19.5162   24.8168 C   0  0  0  0  0  0  0  0  0  0  0  0
   21.5303   20.3958   25.1528 H   0  0  0  0  0  0  0  0  0  0  0  0
   21.7270   18.7876   24.5080 H   0  0  0  0  0  0  0  0  0  0  0  0
   20.1951   18.9716   26.0475 C   0  0  2  0  0  0  0  0  0  0  0  0
   20.8214   19.1722   26.9223 H   0  0  0  0  0  0  0  0  0  0  0  0
   20.0008   17.4447   25.9973 C   0  0  0  0  0  0  0  0  0  0  0  0
   19.3482   17.1308   25.1775 H   0  0  0  0  0  0  0  0  0  0  0  0
   20.9648   16.9352   25.8769 H   0  0  0  0  0  0  0  0  0  0  0  0
   19.5554   17.0860   26.9333 H   0  0  0  0  0  0  0  0  0  0  0  0
   18.8986   19.6898   26.3039 N   0  3  0  0  0  0  0  0  0  0  0  0
   18.2502   19.5680   25.5221 H   0  0  0  0  0  0  0  0  0  0  0  0
   19.0479   20.6954   26.4269 H   0  0  0  0  0  0  0  0  0  0  0  0
   18.4373   19.3418   27.1493 H   0  0  0  0  0  0  0  0  0  0  0  0
  1  2  1  0  0  0  0
  1  3  1  0  0  0  0
  1  4  1  0  0  0  0
  1  5  1  0  0  0  0
  5  6  1  0  0  0  0
  5  7  1  0  0  0  0
  5  8  1  0  0  0  0
  8  9  1  0  0  0  0
  8 10  1  0  0  0  0
  8 11  1  0  0  0  0
 11 12  1  0  0  0  0
 11 13  1  0  0  0  0
 11 14  1  0  0  0  0
 14 15  1  0  0  0  0
 14 16  1  0  0  0  0
 14 17  1  0  0  0  0
 17 18  1  0  0  0  0
 17 19  1  0  0  0  0
 17 20  1  0  0  0  0
 20 21  1  0  0  0  0
 20 22  1  0  0  0  0
 22 23  1  0  0  0  0
 22 24  1  0  0  0  0
 22 25  1  0  0  0  0
 20 26  1  0  0  0  0
 26 27  1  0  0  0  0
 26 28  1  0  0  0  0
 26 29  1  0  0  0  0
M  END
> <VM2 Rank>
166

> <Conf_Id>
649

> <Probability>
0.00

> <Sum Probability>
99.99

> <Delta G>
5.487

> <G>
39.189

> <E>
0.913

> <-TS>
38.276

> <U+W>
-23.232

> <U>
29.228

> <W>
-52.460

> <W(PB)>
-54.864

> <W(SA)>
2.404

> <Valence>
7.395

> <Coulomb>
20.563

> <VdW>
1.270

> <VdW6>
-11.433

> <VdW12>
12.703

> <Bond>
0.391

> <Angle>
3.157

> <Pdih>
3.847

> <Idih>
0.000

> <Tether>
0.000

$$$$
VeraChem MOL file


 29 28  0  0  0  0  0  0  0  0999 V2000     
   20.0100   20.9539   21.3443 C   0  0  0  0  0  0  0  0  0  0  0  0
   20.7317   20.9938   22.1686 H   0  0  0  0  0  0  0  0  0  0  0  0
   20.5689   20.8701   20.4033 H   0  0  0  0  0  0  0  0  0  0  0  0
   19.4741   21.9117   21.3305 H   0  0  0  0  0  0  0  0  0  0  0  0
   19.0149   19.7816   21.5044 C   0  0  0  0  0  0  0  0  0  0  0  0
   18.2517   19.8672   20.7183 H   0  0  0  0  0  0  0  0  0  0  0  0
   18.4749   19.8823   22.4515 H   0  0  0  0  0  0  0  0  0  0  0  0
   19.6772   18.3841   21.3856 C   0  0  0  0  0  0  0  0  0  0  0  0
   18.8967   17.6117   21.3556 H   0  0  0  0  0  0  0  0  0  0  0  0
   20.1767   18.3331   20.4083 H   0  0  0  0  0  0  0  0  0  0  0  0
   20.7165   18.0234   22.4830 C   0  0  0  0  0  0  0  0  0  0  0  0
   21.3176   18.8960   22.7636 H   0  0  0  0  0  0  0  0  0  0  0  0
   21.4322   17.3194   22.0366 H   0  0  0  0  0  0  0  0  0  0  0  0
   20.1322   17.3308   23.7442 C   0  0  0  0  0  0  0  0  0  0  0  0
   19.6052   16.4166   23.4382 H   0  0  0  0  0  0  0  0  0  0  0  0
   20.9661   16.9877   24.3710 H   0  0  0  0  0  0  0  0  0  0  0  0
   19.1745   18.1908   24.6087 C   0  0  0  0  0  0  0  0  0  0  0  0
   18.9019   17.6211   25.5069 H   0  0  0  0  0  0  0  0  0  0  0  0
   18.2372   18.3359   24.0585 H   0  0  0  0  0  0  0  0  0  0  0  0
   19.7399   19.5661   25.0337 C   0  0  2  0  0  0  0  0  0  0  0  0
   20.0278   20.1131   24.1316 H   0  0  0  0  0  0  0  0  0  0  0  0
   20.9803   19.4265   25.9337 C   0  0  0  0  0  0  0  0  0  0  0  0
   21.3424   20.4129   26.2486 H   0  0  0  0  0  0  0  0  0  0  0  0
   20.7526   18.8436   26.8348 H   0  0  0  0  0  0  0  0  0  0  0  0
   21.8024   18.9318   25.4036 H   0  0  0  0  0  0  0  0  0  0  0  0
   18.6906   20.3988   25.7163 N   0  3  0  0  0  0  0  0  0  0  0  0
   19.0511   21.3247   25.9640 H   0  0  0  0  0  0  0  0  0  0  0  0
   18.3680   19.9562   26.5811 H   0  0  0  0  0  0  0  0  0  0  0  0
   17.8714   20.5397   25.1185 H   0  0  0  0  0  0  0  0  0  0  0  0
  1  2  1  0  0  0  0
  1  3  1  0  0  0  0
  1  4  1  0  0  0  0
  1  5  1  0  0  0  0
  5  6  1  0  0  0  0
  5  7  1  0  0  0  0
  5  8  1  0  0  0  0
  8  9  1  0  0  0  0
  8 10  1  0  0  0  0
  8 11  1  0  0  0  0
 11 12  1  0  0  0  0
 11 13  1  0  0  0  0
 11 14  1  0  0  0  0
 14 15  1  0  0  0  0
 14 16  1  0  0  0  0
 14 17  1  0  0  0  0
 17 18  1  0  0  0  0
 17 19  1  0  0  0  0
 17 20  1  0  0  0  0
 20 21  1  0  0  0  0
 20 22  1  0  0  0  0
 22 23  1  0  0  0  0
 22 24  1  0  0  0  0
 22 25  1  0  0  0  0
 20 26  1  0  0  0  0
 26 27  1  0  0  0  0
 26 28  1  0  0  0  0
 26 29  1  0  0  0  0
M  END
> <VM2 Rank>
167

> <Conf_Id>
1284

> <Probability>
0.00

> <Sum Probability>
99.99

> <Delta G>
5.506

> <G>
39.208

> <E>
0.425

> <-TS>
38.783

> <U+W>
-23.719

> <U>
29.314

> <W>
-53.033

> <W(PB)>
-55.383

> <W(SA)>
2.350

> <Valence>
7.653

> <Coulomb>
21.278

> <VdW>
0.382

> <VdW6>
-12.612

> <VdW12>
12.994

> <Bond>
0.381

> <Angle>
3.142

> <Pdih>
4.131

> <Idih>
0.000

> <Tether>
0.000

$$$$
VeraChem MOL file


 29 28  0  0  0  0  0  0  0  0999 V2000     
   19.0964   19.0067   19.7716 C   0  0  0  0  0  0  0  0  0  0  0  0
   20.0684   19.1987   19.2991 H   0  0  0  0  0  0  0  0  0  0  0  0
   19.0587   17.9504   20.0652 H   0  0  0  0  0  0  0  0  0  0  0  0
   18.3178   19.1661   19.0145 H   0  0  0  0  0  0  0  0  0  0  0  0
   18.8726   19.9413   20.9819 C   0  0  0  0  0  0  0  0  0  0  0  0
   17.9096   19.7065   21.4561 H   0  0  0  0  0  0  0  0  0  0  0  0
   18.7921   20.9755   20.6188 H   0  0  0  0  0  0  0  0  0  0  0  0
   20.0070   19.8723   22.0326 C   0  0  0  0  0  0  0  0  0  0  0  0
   20.9634   20.1272   21.5556 H   0  0  0  0  0  0  0  0  0  0  0  0
   19.8240   20.6509   22.7828 H   0  0  0  0  0  0  0  0  0  0  0  0
   20.1251   18.4888   22.7213 C   0  0  0  0  0  0  0  0  0  0  0  0
   20.3790   17.7348   21.9647 H   0  0  0  0  0  0  0  0  0  0  0  0
   19.1562   18.1793   23.1300 H   0  0  0  0  0  0  0  0  0  0  0  0
   21.2156   18.4336   23.8219 C   0  0  0  0  0  0  0  0  0  0  0  0
   21.2891   17.4029   24.1940 H   0  0  0  0  0  0  0  0  0  0  0  0
   22.1882   18.6409   23.3550 H   0  0  0  0  0  0  0  0  0  0  0  0
   21.0392   19.4030   25.0278 C   0  0  0  0  0  0  0  0  0  0  0  0
   21.1323   20.4420   24.6884 H   0  0  0  0  0  0  0  0  0  0  0  0
   21.8920   19.2481   25.7017 H   0  0  0  0  0  0  0  0  0  0  0  0
   19.7488   19.2577   25.8745 C   0  0  2  0  0  0  0  0  0  0  0  0
   19.8965   19.8503   26.7826 H   0  0  0  0  0  0  0  0  0  0  0  0
   19.4948   17.8050   26.3132 C   0  0  0  0  0  0  0  0  0  0  0  0
   18.6612   17.7589   27.0246 H   0  0  0  0  0  0  0  0  0  0  0  0
   19.2444   17.1619   25.4611 H   0  0  0  0  0  0  0  0  0  0  0  0
   20.3799   17.3890   26.8102 H   0  0  0  0  0  0  0  0  0  0  0  0
   18.5364   19.8476   25.2093 N   0  3  0  0  0  0  0  0  0  0  0  0
   17.7019   19.7442   25.7938 H   0  0  0  0  0  0  0  0  0  0  0  0
   18.3505   19.3912   24.3132 H   0  0  0  0  0  0  0  0  0  0  0  0
   18.6606   20.8475   25.0268 H   0  0  0  0  0  0  0  0  0  0  0  0
  1  2  1  0  0  0  0
  1  3  1  0  0  0  0
  1  4  1  0  0  0  0
  1  5  1  0  0  0  0
  5  6  1  0  0  0  0
  5  7  1  0  0  0  0
  5  8  1  0  0  0  0
  8  9  1  0  0  0  0
  8 10  1  0  0  0  0
  8 11  1  0  0  0  0
 11 12  1  0  0  0  0
 11 13  1  0  0  0  0
 11 14  1  0  0  0  0
 14 15  1  0  0  0  0
 14 16  1  0  0  0  0
 14 17  1  0  0  0  0
 17 18  1  0  0  0  0
 17 19  1  0  0  0  0
 17 20  1  0  0  0  0
 20 21  1  0  0  0  0
 20 22  1  0  0  0  0
 22 23  1  0  0  0  0
 22 24  1  0  0  0  0
 22 25  1  0  0  0  0
 20 26  1  0  0  0  0
 26 27  1  0  0  0  0
 26 28  1  0  0  0  0
 26 29  1  0  0  0  0
M  END
> <VM2 Rank>
168

> <Conf_Id>
508

> <Probability>
0.00

> <Sum Probability>
99.99

> <Delta G>
5.588

> <G>
39.290

> <E>
0.689

> <-TS>
38.601

> <U+W>
-23.456

> <U>
28.745

> <W>
-52.201

> <W(PB)>
-54.566

> <W(SA)>
2.364

> <Valence>
6.147

> <Coulomb>
21.776

> <VdW>
0.823

> <VdW6>
-12.079

> <VdW12>
12.901

> <Bond>
0.393

> <Angle>
2.949

> <Pdih>
2.805

> <Idih>
0.000

> <Tether>
0.000

$$$$
VeraChem MOL file


 29 28  0  0  0  0  0  0  0  0999 V2000     
   19.8761   19.0718   19.8411 C   0  0  0  0  0  0  0  0  0  0  0  0
   20.2310   18.0876   20.1710 H   0  0  0  0  0  0  0  0  0  0  0  0
   18.8642   18.9538   19.4323 H   0  0  0  0  0  0  0  0  0  0  0  0
   20.5317   19.4034   19.0256 H   0  0  0  0  0  0  0  0  0  0  0  0
   19.8913   20.0960   20.9982 C   0  0  0  0  0  0  0  0  0  0  0  0
   19.6414   21.0874   20.5954 H   0  0  0  0  0  0  0  0  0  0  0  0
   20.9086   20.1832   21.4024 H   0  0  0  0  0  0  0  0  0  0  0  0
   18.8911   19.7584   22.1328 C   0  0  0  0  0  0  0  0  0  0  0  0
   18.9212   20.5642   22.8763 H   0  0  0  0  0  0  0  0  0  0  0  0
   17.8726   19.7734   21.7212 H   0  0  0  0  0  0  0  0  0  0  0  0
   19.1233   18.3906   22.8305 C   0  0  0  0  0  0  0  0  0  0  0  0
   18.9575   17.5865   22.1014 H   0  0  0  0  0  0  0  0  0  0  0  0
   18.3534   18.2358   23.5956 H   0  0  0  0  0  0  0  0  0  0  0  0
   20.5292   18.2007   23.4591 C   0  0  0  0  0  0  0  0  0  0  0  0
   20.5893   17.1949   23.8951 H   0  0  0  0  0  0  0  0  0  0  0  0
   21.2764   18.2018   22.6547 H   0  0  0  0  0  0  0  0  0  0  0  0
   20.9563   19.2541   24.5229 C   0  0  0  0  0  0  0  0  0  0  0  0
   20.9957   20.2505   24.0654 H   0  0  0  0  0  0  0  0  0  0  0  0
   21.9922   19.0309   24.8096 H   0  0  0  0  0  0  0  0  0  0  0  0
   20.1225   19.3249   25.8282 C   0  0  2  0  0  0  0  0  0  0  0  0
   20.6823   19.9536   26.5274 H   0  0  0  0  0  0  0  0  0  0  0  0
   19.9487   17.9472   26.4906 C   0  0  0  0  0  0  0  0  0  0  0  0
   19.4907   18.0529   27.4816 H   0  0  0  0  0  0  0  0  0  0  0  0
   19.3062   17.2894   25.8931 H   0  0  0  0  0  0  0  0  0  0  0  0
   20.9196   17.4541   26.6233 H   0  0  0  0  0  0  0  0  0  0  0  0
   18.7976   20.0121   25.6506 N   0  3  0  0  0  0  0  0  0  0  0  0
   18.2829   20.0645   26.5344 H   0  0  0  0  0  0  0  0  0  0  0  0
   18.2119   19.5127   24.9778 H   0  0  0  0  0  0  0  0  0  0  0  0
   18.9167   20.9696   25.3082 H   0  0  0  0  0  0  0  0  0  0  0  0
  1  2  1  0  0  0  0
  1  3  1  0  0  0  0
  1  4  1  0  0  0  0
  1  5  1  0  0  0  0
  5  6  1  0  0  0  0
  5  7  1  0  0  0  0
  5  8  1  0  0  0  0
  8  9  1  0  0  0  0
  8 10  1  0  0  0  0
  8 11  1  0  0  0  0
 11 12  1  0  0  0  0
 11 13  1  0  0  0  0
 11 14  1  0  0  0  0
 14 15  1  0  0  0  0
 14 16  1  0  0  0  0
 14 17  1  0  0  0  0
 17 18  1  0  0  0  0
 17 19  1  0  0  0  0
 17 20  1  0  0  0  0
 20 21  1  0  0  0  0
 20 22  1  0  0  0  0
 22 23  1  0  0  0  0
 22 24  1  0  0  0  0
 22 25  1  0  0  0  0
 20 26  1  0  0  0  0
 26 27  1  0  0  0  0
 26 28  1  0  0  0  0
 26 29  1  0  0  0  0
M  END
> <VM2 Rank>
169

> <Conf_Id>
853

> <Probability>
0.00

> <Sum Probability>
99.99

> <Delta G>
5.721

> <G>
39.423

> <E>
0.461

> <-TS>
38.962

> <U+W>
-23.684

> <U>
28.968

> <W>
-52.652

> <W(PB)>
-55.007

> <W(SA)>
2.355

> <Valence>
6.483

> <Coulomb>
21.800

> <VdW>
0.685

> <VdW6>
-13.002

> <VdW12>
13.687

> <Bond>
0.441

> <Angle>
3.285

> <Pdih>
2.757

> <Idih>
0.000

> <Tether>
0.000

$$$$
VeraChem MOL file


 29 28  0  0  0  0  0  0  0  0999 V2000     
   19.3475   21.0140   20.5450 C   0  0  0  0  0  0  0  0  0  0  0  0
   18.4301   21.3035   20.0162 H   0  0  0  0  0  0  0  0  0  0  0  0
   19.5449   21.7699   21.3163 H   0  0  0  0  0  0  0  0  0  0  0  0
   20.1740   21.0392   19.8228 H   0  0  0  0  0  0  0  0  0  0  0  0
   19.1976   19.6100   21.1676 C   0  0  0  0  0  0  0  0  0  0  0  0
   18.9724   18.8831   20.3746 H   0  0  0  0  0  0  0  0  0  0  0  0
   18.3348   19.6141   21.8445 H   0  0  0  0  0  0  0  0  0  0  0  0
   20.4823   19.1806   21.9159 C   0  0  0  0  0  0  0  0  0  0  0  0
   21.3233   19.2223   21.2100 H   0  0  0  0  0  0  0  0  0  0  0  0
   20.7216   19.9099   22.6964 H   0  0  0  0  0  0  0  0  0  0  0  0
   20.4189   17.7429   22.4969 C   0  0  0  0  0  0  0  0  0  0  0  0
   21.4104   17.4612   22.8772 H   0  0  0  0  0  0  0  0  0  0  0  0
   20.2191   17.0539   21.6646 H   0  0  0  0  0  0  0  0  0  0  0  0
   19.3568   17.4896   23.6027 C   0  0  0  0  0  0  0  0  0  0  0  0
   18.4036   17.9717   23.3575 H   0  0  0  0  0  0  0  0  0  0  0  0
   19.1349   16.4134   23.6023 H   0  0  0  0  0  0  0  0  0  0  0  0
   19.8017   17.8563   25.0450 C   0  0  0  0  0  0  0  0  0  0  0  0
   20.6967   17.2727   25.2980 H   0  0  0  0  0  0  0  0  0  0  0  0
   19.0200   17.5274   25.7427 H   0  0  0  0  0  0  0  0  0  0  0  0
   20.0945   19.3512   25.2952 C   0  0  2  0  0  0  0  0  0  0  0  0
   20.9357   19.6473   24.6636 H   0  0  0  0  0  0  0  0  0  0  0  0
   20.5028   19.5776   26.7593 C   0  0  0  0  0  0  0  0  0  0  0  0
   19.6913   19.3043   27.4454 H   0  0  0  0  0  0  0  0  0  0  0  0
   21.3839   18.9761   27.0153 H   0  0  0  0  0  0  0  0  0  0  0  0
   20.7566   20.6306   26.9329 H   0  0  0  0  0  0  0  0  0  0  0  0
   18.9340   20.2338   24.9264 N   0  3  0  0  0  0  0  0  0  0  0  0
   19.1504   21.2223   25.0843 H   0  0  0  0  0  0  0  0  0  0  0  0
   18.1043   20.0077   25.4819 H   0  0  0  0  0  0  0  0  0  0  0  0
   18.6896   20.1215   23.9386 H   0  0  0  0  0  0  0  0  0  0  0  0
  1  2  1  0  0  0  0
  1  3  1  0  0  0  0
  1  4  1  0  0  0  0
  1  5  1  0  0  0  0
  5  6  1  0  0  0  0
  5  7  1  0  0  0  0
  5  8  1  0  0  0  0
  8  9  1  0  0  0  0
  8 10  1  0  0  0  0
  8 11  1  0  0  0  0
 11 12  1  0  0  0  0
 11 13  1  0  0  0  0
 11 14  1  0  0  0  0
 14 15  1  0  0  0  0
 14 16  1  0  0  0  0
 14 17  1  0  0  0  0
 17 18  1  0  0  0  0
 17 19  1  0  0  0  0
 17 20  1  0  0  0  0
 20 21  1  0  0  0  0
 20 22  1  0  0  0  0
 22 23  1  0  0  0  0
 22 24  1  0  0  0  0
 22 25  1  0  0  0  0
 20 26  1  0  0  0  0
 26 27  1  0  0  0  0
 26 28  1  0  0  0  0
 26 29  1  0  0  0  0
M  END
> <VM2 Rank>
170

> <Conf_Id>
633

> <Probability>
0.00

> <Sum Probability>
99.99

> <Delta G>
5.734

> <G>
39.436

> <E>
1.175

> <-TS>
38.261

> <U+W>
-22.969

> <U>
28.533

> <W>
-51.503

> <W(PB)>
-53.929

> <W(SA)>
2.426

> <Valence>
6.517

> <Coulomb>
21.462

> <VdW>
0.554

> <VdW6>
-11.293

> <VdW12>
11.847

> <Bond>
0.345

> <Angle>
2.712

> <Pdih>
3.460

> <Idih>
0.000

> <Tether>
0.000

$$$$
VeraChem MOL file


 29 28  0  0  0  0  0  0  0  0999 V2000     
   21.0341   20.6088   21.0221 C   0  0  0  0  0  0  0  0  0  0  0  0
   20.4977   20.9620   20.1317 H   0  0  0  0  0  0  0  0  0  0  0  0
   20.9181   21.3619   21.8124 H   0  0  0  0  0  0  0  0  0  0  0  0
   22.1007   20.5460   20.7704 H   0  0  0  0  0  0  0  0  0  0  0  0
   20.5010   19.2357   21.4817 C   0  0  0  0  0  0  0  0  0  0  0  0
   21.0838   18.8915   22.3443 H   0  0  0  0  0  0  0  0  0  0  0  0
   20.6663   18.4968   20.6852 H   0  0  0  0  0  0  0  0  0  0  0  0
   18.9925   19.2940   21.8233 C   0  0  0  0  0  0  0  0  0  0  0  0
   18.7752   20.1259   22.5059 H   0  0  0  0  0  0  0  0  0  0  0  0
   18.4451   19.5193   20.8976 H   0  0  0  0  0  0  0  0  0  0  0  0
   18.4481   17.9655   22.4068 C   0  0  0  0  0  0  0  0  0  0  0  0
   19.0421   17.1176   22.0386 H   0  0  0  0  0  0  0  0  0  0  0  0
   17.4375   17.8096   22.0046 H   0  0  0  0  0  0  0  0  0  0  0  0
   18.3424   17.9074   23.9549 C   0  0  0  0  0  0  0  0  0  0  0  0
   17.6445   18.6766   24.3096 H   0  0  0  0  0  0  0  0  0  0  0  0
   17.8707   16.9489   24.2120 H   0  0  0  0  0  0  0  0  0  0  0  0
   19.6882   17.9902   24.7244 C   0  0  0  0  0  0  0  0  0  0  0  0
   20.4425   17.3952   24.1931 H   0  0  0  0  0  0  0  0  0  0  0  0
   19.5630   17.5086   25.7033 H   0  0  0  0  0  0  0  0  0  0  0  0
   20.2132   19.4262   24.9561 C   0  0  2  0  0  0  0  0  0  0  0  0
   20.2731   19.9395   23.9939 H   0  0  0  0  0  0  0  0  0  0  0  0
   21.6244   19.3864   25.5630 C   0  0  0  0  0  0  0  0  0  0  0  0
   22.3171   18.8484   24.9039 H   0  0  0  0  0  0  0  0  0  0  0  0
   22.0169   20.4016   25.6998 H   0  0  0  0  0  0  0  0  0  0  0  0
   21.6230   18.8857   26.5393 H   0  0  0  0  0  0  0  0  0  0  0  0
   19.2921   20.2418   25.8217 N   0  3  0  0  0  0  0  0  0  0  0  0
   19.6450   21.1945   25.9504 H   0  0  0  0  0  0  0  0  0  0  0  0
   19.1890   19.8255   26.7510 H   0  0  0  0  0  0  0  0  0  0  0  0
   18.3576   20.3131   25.4106 H   0  0  0  0  0  0  0  0  0  0  0  0
  1  2  1  0  0  0  0
  1  3  1  0  0  0  0
  1  4  1  0  0  0  0
  1  5  1  0  0  0  0
  5  6  1  0  0  0  0
  5  7  1  0  0  0  0
  5  8  1  0  0  0  0
  8  9  1  0  0  0  0
  8 10  1  0  0  0  0
  8 11  1  0  0  0  0
 11 12  1  0  0  0  0
 11 13  1  0  0  0  0
 11 14  1  0  0  0  0
 14 15  1  0  0  0  0
 14 16  1  0  0  0  0
 14 17  1  0  0  0  0
 17 18  1  0  0  0  0
 17 19  1  0  0  0  0
 17 20  1  0  0  0  0
 20 21  1  0  0  0  0
 20 22  1  0  0  0  0
 22 23  1  0  0  0  0
 22 24  1  0  0  0  0
 22 25  1  0  0  0  0
 20 26  1  0  0  0  0
 26 27  1  0  0  0  0
 26 28  1  0  0  0  0
 26 29  1  0  0  0  0
M  END
> <VM2 Rank>
171

> <Conf_Id>
835

> <Probability>
0.00

> <Sum Probability>
100.00

> <Delta G>
5.851

> <G>
39.553

> <E>
1.178

> <-TS>
38.375

> <U+W>
-22.966

> <U>
29.616

> <W>
-52.582

> <W(PB)>
-54.955

> <W(SA)>
2.373

> <Valence>
8.185

> <Coulomb>
21.112

> <VdW>
0.319

> <VdW6>
-11.889

> <VdW12>
12.208

> <Bond>
0.321

> <Angle>
2.381

> <Pdih>
5.483

> <Idih>
0.000

> <Tether>
0.000

$$$$
VeraChem MOL file


 29 28  0  0  0  0  0  0  0  0999 V2000     
   19.6939   19.6693   19.8782 C   0  0  0  0  0  0  0  0  0  0  0  0
   18.8717   19.1071   19.4170 H   0  0  0  0  0  0  0  0  0  0  0  0
   19.2773   20.5756   20.3349 H   0  0  0  0  0  0  0  0  0  0  0  0
   20.3754   19.9856   19.0780 H   0  0  0  0  0  0  0  0  0  0  0  0
   20.4431   18.8050   20.9172 C   0  0  0  0  0  0  0  0  0  0  0  0
   21.2484   19.3932   21.3768 H   0  0  0  0  0  0  0  0  0  0  0  0
   20.9373   17.9741   20.3948 H   0  0  0  0  0  0  0  0  0  0  0  0
   19.5167   18.2179   22.0121 C   0  0  0  0  0  0  0  0  0  0  0  0
   18.7796   17.5577   21.5350 H   0  0  0  0  0  0  0  0  0  0  0  0
   20.1125   17.5698   22.6667 H   0  0  0  0  0  0  0  0  0  0  0  0
   18.7590   19.2685   22.8684 C   0  0  0  0  0  0  0  0  0  0  0  0
   18.1191   18.7532   23.5939 H   0  0  0  0  0  0  0  0  0  0  0  0
   18.0618   19.8184   22.2225 H   0  0  0  0  0  0  0  0  0  0  0  0
   19.6605   20.2939   23.6038 C   0  0  0  0  0  0  0  0  0  0  0  0
   20.1665   20.9129   22.8511 H   0  0  0  0  0  0  0  0  0  0  0  0
   19.0221   20.9950   24.1571 H   0  0  0  0  0  0  0  0  0  0  0  0
   20.7446   19.7110   24.5580 C   0  0  0  0  0  0  0  0  0  0  0  0
   21.3565   20.5557   24.9002 H   0  0  0  0  0  0  0  0  0  0  0  0
   21.4377   19.0701   23.9988 H   0  0  0  0  0  0  0  0  0  0  0  0
   20.2545   18.9700   25.8298 C   0  0  2  0  0  0  0  0  0  0  0  0
   21.0758   19.0165   26.5515 H   0  0  0  0  0  0  0  0  0  0  0  0
   19.9757   17.4758   25.5891 C   0  0  0  0  0  0  0  0  0  0  0  0
   19.1022   17.3125   24.9513 H   0  0  0  0  0  0  0  0  0  0  0  0
   20.8397   16.9881   25.1212 H   0  0  0  0  0  0  0  0  0  0  0  0
   19.7880   16.9663   26.5421 H   0  0  0  0  0  0  0  0  0  0  0  0
   19.0881   19.6447   26.4974 N   0  3  0  0  0  0  0  0  0  0  0  0
   18.8260   19.1689   27.3654 H   0  0  0  0  0  0  0  0  0  0  0  0
   18.2680   19.6493   25.8859 H   0  0  0  0  0  0  0  0  0  0  0  0
   19.3041   20.6176   26.7327 H   0  0  0  0  0  0  0  0  0  0  0  0
  1  2  1  0  0  0  0
  1  3  1  0  0  0  0
  1  4  1  0  0  0  0
  1  5  1  0  0  0  0
  5  6  1  0  0  0  0
  5  7  1  0  0  0  0
  5  8  1  0  0  0  0
  8  9  1  0  0  0  0
  8 10  1  0  0  0  0
  8 11  1  0  0  0  0
 11 12  1  0  0  0  0
 11 13  1  0  0  0  0
 11 14  1  0  0  0  0
 14 15  1  0  0  0  0
 14 16  1  0  0  0  0
 14 17  1  0  0  0  0
 17 18  1  0  0  0  0
 17 19  1  0  0  0  0
 17 20  1  0  0  0  0
 20 21  1  0  0  0  0
 20 22  1  0  0  0  0
 22 23  1  0  0  0  0
 22 24  1  0  0  0  0
 22 25  1  0  0  0  0
 20 26  1  0  0  0  0
 26 27  1  0  0  0  0
 26 28  1  0  0  0  0
 26 29  1  0  0  0  0
M  END
> <VM2 Rank>
172

> <Conf_Id>
958

> <Probability>
0.00

> <Sum Probability>
100.00

> <Delta G>
5.931

> <G>
39.633

> <E>
0.648

> <-TS>
38.985

> <U+W>
-23.496

> <U>
29.135

> <W>
-52.632

> <W(PB)>
-54.976

> <W(SA)>
2.344

> <Valence>
7.786

> <Coulomb>
20.543

> <VdW>
0.807

> <VdW6>
-12.839

> <VdW12>
13.646

> <Bond>
0.443

> <Angle>
3.662

> <Pdih>
3.681

> <Idih>
0.000

> <Tether>
0.000

$$$$
VeraChem MOL file


 29 28  0  0  0  0  0  0  0  0999 V2000     
   20.8292   19.3375   20.0252 C   0  0  0  0  0  0  0  0  0  0  0  0
   21.4986   20.0025   19.4644 H   0  0  0  0  0  0  0  0  0  0  0  0
   21.4201   18.8679   20.8187 H   0  0  0  0  0  0  0  0  0  0  0  0
   20.4936   18.5484   19.3399 H   0  0  0  0  0  0  0  0  0  0  0  0
   19.6260   20.1312   20.5855 C   0  0  0  0  0  0  0  0  0  0  0  0
   19.1193   20.6160   19.7393 H   0  0  0  0  0  0  0  0  0  0  0  0
   19.9756   20.9457   21.2351 H   0  0  0  0  0  0  0  0  0  0  0  0
   18.5939   19.2492   21.3348 C   0  0  0  0  0  0  0  0  0  0  0  0
   17.5969   19.6812   21.1717 H   0  0  0  0  0  0  0  0  0  0  0  0
   18.5567   18.2453   20.8899 H   0  0  0  0  0  0  0  0  0  0  0  0
   18.8111   19.1492   22.8667 C   0  0  0  0  0  0  0  0  0  0  0  0
   17.9692   18.5883   23.2954 H   0  0  0  0  0  0  0  0  0  0  0  0
   18.7695   20.1601   23.2905 H   0  0  0  0  0  0  0  0  0  0  0  0
   20.1368   18.4627   23.2750 C   0  0  0  0  0  0  0  0  0  0  0  0
   20.2769   17.5689   22.6516 H   0  0  0  0  0  0  0  0  0  0  0  0
   20.9801   19.1312   23.0569 H   0  0  0  0  0  0  0  0  0  0  0  0
   20.2113   18.0249   24.7615 C   0  0  0  0  0  0  0  0  0  0  0  0
   21.1334   17.4401   24.8792 H   0  0  0  0  0  0  0  0  0  0  0  0
   19.3885   17.3367   24.9963 H   0  0  0  0  0  0  0  0  0  0  0  0
   20.2349   19.1888   25.7804 C   0  0  2  0  0  0  0  0  0  0  0  0
   20.8841   19.9776   25.3882 H   0  0  0  0  0  0  0  0  0  0  0  0
   20.8138   18.7121   27.1227 C   0  0  0  0  0  0  0  0  0  0  0  0
   20.8507   19.5370   27.8450 H   0  0  0  0  0  0  0  0  0  0  0  0
   20.2053   17.9070   27.5535 H   0  0  0  0  0  0  0  0  0  0  0  0
   21.8371   18.3372   26.9962 H   0  0  0  0  0  0  0  0  0  0  0  0
   18.8789   19.8004   26.0022 N   0  3  0  0  0  0  0  0  0  0  0  0
   18.9278   20.5932   26.6486 H   0  0  0  0  0  0  0  0  0  0  0  0
   18.2258   19.1204   26.4003 H   0  0  0  0  0  0  0  0  0  0  0  0
   18.4751   20.1399   25.1264 H   0  0  0  0  0  0  0  0  0  0  0  0
  1  2  1  0  0  0  0
  1  3  1  0  0  0  0
  1  4  1  0  0  0  0
  1  5  1  0  0  0  0
  5  6  1  0  0  0  0
  5  7  1  0  0  0  0
  5  8  1  0  0  0  0
  8  9  1  0  0  0  0
  8 10  1  0  0  0  0
  8 11  1  0  0  0  0
 11 12  1  0  0  0  0
 11 13  1  0  0  0  0
 11 14  1  0  0  0  0
 14 15  1  0  0  0  0
 14 16  1  0  0  0  0
 14 17  1  0  0  0  0
 17 18  1  0  0  0  0
 17 19  1  0  0  0  0
 17 20  1  0  0  0  0
 20 21  1  0  0  0  0
 20 22  1  0  0  0  0
 22 23  1  0  0  0  0
 22 24  1  0  0  0  0
 22 25  1  0  0  0  0
 20 26  1  0  0  0  0
 26 27  1  0  0  0  0
 26 28  1  0  0  0  0
 26 29  1  0  0  0  0
M  END
> <VM2 Rank>
173

> <Conf_Id>
967

> <Probability>
0.00

> <Sum Probability>
100.00

> <Delta G>
6.078

> <G>
39.780

> <E>
2.058

> <-TS>
37.722

> <U+W>
-22.086

> <U>
30.184

> <W>
-52.270

> <W(PB)>
-54.705

> <W(SA)>
2.434

> <Valence>
7.817

> <Coulomb>
21.246

> <VdW>
1.122

> <VdW6>
-10.605

> <VdW12>
11.728

> <Bond>
0.328

> <Angle>
2.365

> <Pdih>
5.123

> <Idih>
0.000

> <Tether>
0.000

$$$$
VeraChem MOL file


 29 28  0  0  0  0  0  0  0  0999 V2000     
   18.7012   20.7183   20.9174 C   0  0  0  0  0  0  0  0  0  0  0  0
   17.8663   20.6734   21.6284 H   0  0  0  0  0  0  0  0  0  0  0  0
   19.4949   21.3389   21.3509 H   0  0  0  0  0  0  0  0  0  0  0  0
   18.3421   21.2298   20.0149 H   0  0  0  0  0  0  0  0  0  0  0  0
   19.2109   19.3022   20.5649 C   0  0  0  0  0  0  0  0  0  0  0  0
   20.0540   19.3751   19.8637 H   0  0  0  0  0  0  0  0  0  0  0  0
   18.4148   18.7630   20.0327 H   0  0  0  0  0  0  0  0  0  0  0  0
   19.6284   18.4743   21.8032 C   0  0  0  0  0  0  0  0  0  0  0  0
   18.7780   18.4084   22.4926 H   0  0  0  0  0  0  0  0  0  0  0  0
   19.8394   17.4451   21.4814 H   0  0  0  0  0  0  0  0  0  0  0  0
   20.8812   19.0372   22.5217 C   0  0  0  0  0  0  0  0  0  0  0  0
   20.7215   20.0718   22.8448 H   0  0  0  0  0  0  0  0  0  0  0  0
   21.7069   19.0830   21.7982 H   0  0  0  0  0  0  0  0  0  0  0  0
   21.3417   18.1778   23.7262 C   0  0  0  0  0  0  0  0  0  0  0  0
   21.6367   17.1862   23.3561 H   0  0  0  0  0  0  0  0  0  0  0  0
   22.2560   18.6227   24.1428 H   0  0  0  0  0  0  0  0  0  0  0  0
   20.3136   17.9875   24.8757 C   0  0  0  0  0  0  0  0  0  0  0  0
   20.7873   17.3367   25.6227 H   0  0  0  0  0  0  0  0  0  0  0  0
   19.4337   17.4351   24.5227 H   0  0  0  0  0  0  0  0  0  0  0  0
   19.8752   19.2979   25.5718 C   0  0  2  0  0  0  0  0  0  0  0  0
   20.7507   19.9482   25.6613 H   0  0  0  0  0  0  0  0  0  0  0  0
   19.3453   19.0055   26.9851 C   0  0  0  0  0  0  0  0  0  0  0  0
   20.1175   18.5279   27.6010 H   0  0  0  0  0  0  0  0  0  0  0  0
   19.0479   19.9337   27.4885 H   0  0  0  0  0  0  0  0  0  0  0  0
   18.4738   18.3396   26.9522 H   0  0  0  0  0  0  0  0  0  0  0  0
   18.8385   20.0553   24.7880 N   0  3  0  0  0  0  0  0  0  0  0  0
   19.1496   20.2172   23.8258 H   0  0  0  0  0  0  0  0  0  0  0  0
   18.6385   20.9654   25.2135 H   0  0  0  0  0  0  0  0  0  0  0  0
   17.9573   19.5365   24.7452 H   0  0  0  0  0  0  0  0  0  0  0  0
  1  2  1  0  0  0  0
  1  3  1  0  0  0  0
  1  4  1  0  0  0  0
  1  5  1  0  0  0  0
  5  6  1  0  0  0  0
  5  7  1  0  0  0  0
  5  8  1  0  0  0  0
  8  9  1  0  0  0  0
  8 10  1  0  0  0  0
  8 11  1  0  0  0  0
 11 12  1  0  0  0  0
 11 13  1  0  0  0  0
 11 14  1  0  0  0  0
 14 15  1  0  0  0  0
 14 16  1  0  0  0  0
 14 17  1  0  0  0  0
 17 18  1  0  0  0  0
 17 19  1  0  0  0  0
 17 20  1  0  0  0  0
 20 21  1  0  0  0  0
 20 22  1  0  0  0  0
 22 23  1  0  0  0  0
 22 24  1  0  0  0  0
 22 25  1  0  0  0  0
 20 26  1  0  0  0  0
 26 27  1  0  0  0  0
 26 28  1  0  0  0  0
 26 29  1  0  0  0  0
M  END
> <VM2 Rank>
174

> <Conf_Id>
1295

> <Probability>
0.00

> <Sum Probability>
100.00

> <Delta G>
6.248

> <G>
39.950

> <E>
1.608

> <-TS>
38.341

> <U+W>
-22.536

> <U>
28.370

> <W>
-50.906

> <W(PB)>
-53.306

> <W(SA)>
2.400

> <Valence>
5.939

> <Coulomb>
21.711

> <VdW>
0.720

> <VdW6>
-11.570

> <VdW12>
12.290

> <Bond>
0.321

> <Angle>
2.348

> <Pdih>
3.270

> <Idih>
0.000

> <Tether>
0.000

$$$$
VeraChem MOL file


 29 28  0  0  0  0  0  0  0  0999 V2000     
   21.2928   19.9372   21.3353 C   0  0  0  0  0  0  0  0  0  0  0  0
   21.1243   20.8611   20.7669 H   0  0  0  0  0  0  0  0  0  0  0  0
   21.1504   20.1656   22.3966 H   0  0  0  0  0  0  0  0  0  0  0  0
   22.3422   19.6473   21.1954 H   0  0  0  0  0  0  0  0  0  0  0  0
   20.3512   18.8115   20.8471 C   0  0  0  0  0  0  0  0  0  0  0  0
   20.5763   17.8664   21.3591 H   0  0  0  0  0  0  0  0  0  0  0  0
   20.5673   18.6330   19.7845 H   0  0  0  0  0  0  0  0  0  0  0  0
   18.8472   19.1578   20.9880 C   0  0  0  0  0  0  0  0  0  0  0  0
   18.6927   20.2368   20.8509 H   0  0  0  0  0  0  0  0  0  0  0  0
   18.3153   18.6787   20.1544 H   0  0  0  0  0  0  0  0  0  0  0  0
   18.1636   18.6837   22.2995 C   0  0  0  0  0  0  0  0  0  0  0  0
   18.2473   17.5925   22.3957 H   0  0  0  0  0  0  0  0  0  0  0  0
   17.0885   18.8856   22.1957 H   0  0  0  0  0  0  0  0  0  0  0  0
   18.6513   19.3773   23.5967 C   0  0  0  0  0  0  0  0  0  0  0  0
   19.0108   20.3898   23.3695 H   0  0  0  0  0  0  0  0  0  0  0  0
   17.7858   19.5062   24.2603 H   0  0  0  0  0  0  0  0  0  0  0  0
   19.7334   18.5648   24.3540 C   0  0  0  0  0  0  0  0  0  0  0  0
   20.5477   18.3033   23.6693 H   0  0  0  0  0  0  0  0  0  0  0  0
   19.3054   17.6137   24.6974 H   0  0  0  0  0  0  0  0  0  0  0  0
   20.3251   19.3306   25.5566 C   0  0  2  0  0  0  0  0  0  0  0  0
   20.7204   20.2846   25.1943 H   0  0  0  0  0  0  0  0  0  0  0  0
   21.4826   18.5348   26.1803 C   0  0  0  0  0  0  0  0  0  0  0  0
   21.9311   19.0900   27.0133 H   0  0  0  0  0  0  0  0  0  0  0  0
   21.1377   17.5655   26.5617 H   0  0  0  0  0  0  0  0  0  0  0  0
   22.2716   18.3499   25.4406 H   0  0  0  0  0  0  0  0  0  0  0  0
   19.2887   19.6583   26.5964 N   0  3  0  0  0  0  0  0  0  0  0  0
   19.6938   20.1847   27.3758 H   0  0  0  0  0  0  0  0  0  0  0  0
   18.8690   18.8094   26.9847 H   0  0  0  0  0  0  0  0  0  0  0  0
   18.5322   20.2251   26.2038 H   0  0  0  0  0  0  0  0  0  0  0  0
  1  2  1  0  0  0  0
  1  3  1  0  0  0  0
  1  4  1  0  0  0  0
  1  5  1  0  0  0  0
  5  6  1  0  0  0  0
  5  7  1  0  0  0  0
  5  8  1  0  0  0  0
  8  9  1  0  0  0  0
  8 10  1  0  0  0  0
  8 11  1  0  0  0  0
 11 12  1  0  0  0  0
 11 13  1  0  0  0  0
 11 14  1  0  0  0  0
 14 15  1  0  0  0  0
 14 16  1  0  0  0  0
 14 17  1  0  0  0  0
 17 18  1  0  0  0  0
 17 19  1  0  0  0  0
 17 20  1  0  0  0  0
 20 21  1  0  0  0  0
 20 22  1  0  0  0  0
 22 23  1  0  0  0  0
 22 24  1  0  0  0  0
 22 25  1  0  0  0  0
 20 26  1  0  0  0  0
 26 27  1  0  0  0  0
 26 28  1  0  0  0  0
 26 29  1  0  0  0  0
M  END
> <VM2 Rank>
175

> <Conf_Id>
1208

> <Probability>
0.00

> <Sum Probability>
100.00

> <Delta G>
6.256

> <G>
39.958

> <E>
1.672

> <-TS>
38.285

> <U+W>
-22.472

> <U>
30.008

> <W>
-52.480

> <W(PB)>
-54.891

> <W(SA)>
2.411

> <Valence>
8.778

> <Coulomb>
20.386

> <VdW>
0.844

> <VdW6>
-10.990

> <VdW12>
11.834

> <Bond>
0.330

> <Angle>
2.382

> <Pdih>
6.066

> <Idih>
0.000

> <Tether>
0.000

$$$$
VeraChem MOL file


 29 28  0  0  0  0  0  0  0  0999 V2000     
   18.0809   19.7612   20.9365 C   0  0  0  0  0  0  0  0  0  0  0  0
   17.5075   19.9096   20.0123 H   0  0  0  0  0  0  0  0  0  0  0  0
   17.6811   18.8665   21.4292 H   0  0  0  0  0  0  0  0  0  0  0  0
   17.8971   20.6275   21.5848 H   0  0  0  0  0  0  0  0  0  0  0  0
   19.5860   19.6129   20.6169 C   0  0  0  0  0  0  0  0  0  0  0  0
   19.9079   20.4805   20.0241 H   0  0  0  0  0  0  0  0  0  0  0  0
   19.7451   18.7306   19.9813 H   0  0  0  0  0  0  0  0  0  0  0  0
   20.4752   19.5172   21.8792 C   0  0  0  0  0  0  0  0  0  0  0  0
   21.5286   19.5548   21.5691 H   0  0  0  0  0  0  0  0  0  0  0  0
   20.3098   20.4049   22.5016 H   0  0  0  0  0  0  0  0  0  0  0  0
   20.2422   18.2206   22.6954 C   0  0  0  0  0  0  0  0  0  0  0  0
   20.4155   17.3580   22.0373 H   0  0  0  0  0  0  0  0  0  0  0  0
   19.1979   18.1388   23.0147 H   0  0  0  0  0  0  0  0  0  0  0  0
   21.1781   18.0879   23.9235 C   0  0  0  0  0  0  0  0  0  0  0  0
   21.0031   17.1130   24.3979 H   0  0  0  0  0  0  0  0  0  0  0  0
   22.2165   18.0523   23.5663 H   0  0  0  0  0  0  0  0  0  0  0  0
   21.0710   19.2100   24.9979 C   0  0  0  0  0  0  0  0  0  0  0  0
   21.4059   20.1647   24.5735 H   0  0  0  0  0  0  0  0  0  0  0  0
   21.7975   18.9801   25.7884 H   0  0  0  0  0  0  0  0  0  0  0  0
   19.6931   19.4121   25.6794 C   0  0  2  0  0  0  0  0  0  0  0  0
   19.8571   20.0686   26.5395 H   0  0  0  0  0  0  0  0  0  0  0  0
   19.1045   18.0957   26.2159 C   0  0  0  0  0  0  0  0  0  0  0  0
   18.8236   17.4154   25.4032 H   0  0  0  0  0  0  0  0  0  0  0  0
   19.8278   17.5814   26.8607 H   0  0  0  0  0  0  0  0  0  0  0  0
   18.2065   18.2923   26.8142 H   0  0  0  0  0  0  0  0  0  0  0  0
   18.7050   20.1385   24.8093 N   0  3  0  0  0  0  0  0  0  0  0  0
   17.8032   20.2509   25.2817 H   0  0  0  0  0  0  0  0  0  0  0  0
   18.5433   19.6311   23.9356 H   0  0  0  0  0  0  0  0  0  0  0  0
   19.0420   21.0742   24.5655 H   0  0  0  0  0  0  0  0  0  0  0  0
  1  2  1  0  0  0  0
  1  3  1  0  0  0  0
  1  4  1  0  0  0  0
  1  5  1  0  0  0  0
  5  6  1  0  0  0  0
  5  7  1  0  0  0  0
  5  8  1  0  0  0  0
  8  9  1  0  0  0  0
  8 10  1  0  0  0  0
  8 11  1  0  0  0  0
 11 12  1  0  0  0  0
 11 13  1  0  0  0  0
 11 14  1  0  0  0  0
 14 15  1  0  0  0  0
 14 16  1  0  0  0  0
 14 17  1  0  0  0  0
 17 18  1  0  0  0  0
 17 19  1  0  0  0  0
 17 20  1  0  0  0  0
 20 21  1  0  0  0  0
 20 22  1  0  0  0  0
 22 23  1  0  0  0  0
 22 24  1  0  0  0  0
 22 25  1  0  0  0  0
 20 26  1  0  0  0  0
 26 27  1  0  0  0  0
 26 28  1  0  0  0  0
 26 29  1  0  0  0  0
M  END
> <VM2 Rank>
176

> <Conf_Id>
348

> <Probability>
0.00

> <Sum Probability>
100.00

> <Delta G>
6.290

> <G>
39.992

> <E>
1.248

> <-TS>
38.744

> <U+W>
-22.896

> <U>
28.641

> <W>
-51.537

> <W(PB)>
-53.872

> <W(SA)>
2.335

> <Valence>
6.059

> <Coulomb>
22.000

> <VdW>
0.582

> <VdW6>
-12.551

> <VdW12>
13.133

> <Bond>
0.383

> <Angle>
2.850

> <Pdih>
2.826

> <Idih>
0.000

> <Tether>
0.000

$$$$
VeraChem MOL file


 29 28  0  0  0  0  0  0  0  0999 V2000     
   20.5555   18.5249   20.1643 C   0  0  0  0  0  0  0  0  0  0  0  0
   20.6107   17.5950   19.5836 H   0  0  0  0  0  0  0  0  0  0  0  0
   20.8268   19.3516   19.4950 H   0  0  0  0  0  0  0  0  0  0  0  0
   21.3126   18.4669   20.9536 H   0  0  0  0  0  0  0  0  0  0  0  0
   19.1316   18.7211   20.7348 C   0  0  0  0  0  0  0  0  0  0  0  0
   18.8493   17.8623   21.3596 H   0  0  0  0  0  0  0  0  0  0  0  0
   18.4279   18.7250   19.8907 H   0  0  0  0  0  0  0  0  0  0  0  0
   18.9578   20.0435   21.5256 C   0  0  0  0  0  0  0  0  0  0  0  0
   19.6154   20.8221   21.1151 H   0  0  0  0  0  0  0  0  0  0  0  0
   17.9335   20.4057   21.3614 H   0  0  0  0  0  0  0  0  0  0  0  0
   19.1665   19.9186   23.0567 C   0  0  0  0  0  0  0  0  0  0  0  0
   18.4422   19.1948   23.4498 H   0  0  0  0  0  0  0  0  0  0  0  0
   18.9283   20.8882   23.5151 H   0  0  0  0  0  0  0  0  0  0  0  0
   20.5993   19.5036   23.4689 C   0  0  0  0  0  0  0  0  0  0  0  0
   20.7812   18.4606   23.1811 H   0  0  0  0  0  0  0  0  0  0  0  0
   21.3175   20.1069   22.8970 H   0  0  0  0  0  0  0  0  0  0  0  0
   20.9174   19.6895   24.9793 C   0  0  0  0  0  0  0  0  0  0  0  0
   20.8441   20.7541   25.2373 H   0  0  0  0  0  0  0  0  0  0  0  0
   21.9718   19.4251   25.1333 H   0  0  0  0  0  0  0  0  0  0  0  0
   20.0773   18.8676   25.9901 C   0  0  2  0  0  0  0  0  0  0  0  0
   20.5708   18.9633   26.9622 H   0  0  0  0  0  0  0  0  0  0  0  0
   20.0380   17.3696   25.6413 C   0  0  0  0  0  0  0  0  0  0  0  0
   19.4714   17.1827   24.7212 H   0  0  0  0  0  0  0  0  0  0  0  0
   21.0528   16.9751   25.5072 H   0  0  0  0  0  0  0  0  0  0  0  0
   19.5632   16.7995   26.4492 H   0  0  0  0  0  0  0  0  0  0  0  0
   18.6926   19.4177   26.1931 N   0  3  0  0  0  0  0  0  0  0  0  0
   18.7192   20.3952   26.4970 H   0  0  0  0  0  0  0  0  0  0  0  0
   18.1819   18.8894   26.9065 H   0  0  0  0  0  0  0  0  0  0  0  0
   18.1478   19.3776   25.3292 H   0  0  0  0  0  0  0  0  0  0  0  0
  1  2  1  0  0  0  0
  1  3  1  0  0  0  0
  1  4  1  0  0  0  0
  1  5  1  0  0  0  0
  5  6  1  0  0  0  0
  5  7  1  0  0  0  0
  5  8  1  0  0  0  0
  8  9  1  0  0  0  0
  8 10  1  0  0  0  0
  8 11  1  0  0  0  0
 11 12  1  0  0  0  0
 11 13  1  0  0  0  0
 11 14  1  0  0  0  0
 14 15  1  0  0  0  0
 14 16  1  0  0  0  0
 14 17  1  0  0  0  0
 17 18  1  0  0  0  0
 17 19  1  0  0  0  0
 17 20  1  0  0  0  0
 20 21  1  0  0  0  0
 20 22  1  0  0  0  0
 22 23  1  0  0  0  0
 22 24  1  0  0  0  0
 22 25  1  0  0  0  0
 20 26  1  0  0  0  0
 26 27  1  0  0  0  0
 26 28  1  0  0  0  0
 26 29  1  0  0  0  0
M  END
> <VM2 Rank>
177

> <Conf_Id>
976

> <Probability>
0.00

> <Sum Probability>
100.00

> <Delta G>
6.387

> <G>
40.089

> <E>
1.771

> <-TS>
38.318

> <U+W>
-22.374

> <U>
30.296

> <W>
-52.670

> <W(PB)>
-55.069

> <W(SA)>
2.399

> <Valence>
7.940

> <Coulomb>
21.395

> <VdW>
0.961

> <VdW6>
-11.719

> <VdW12>
12.680

> <Bond>
0.376

> <Angle>
2.868

> <Pdih>
4.695

> <Idih>
0.000

> <Tether>
0.000

$$$$
VeraChem MOL file


 29 28  0  0  0  0  0  0  0  0999 V2000     
   20.4924   19.7846   19.5628 C   0  0  0  0  0  0  0  0  0  0  0  0
   21.3624   20.4275   19.3763 H   0  0  0  0  0  0  0  0  0  0  0  0
   20.6308   18.8567   18.9926 H   0  0  0  0  0  0  0  0  0  0  0  0
   19.6041   20.2974   19.1713 H   0  0  0  0  0  0  0  0  0  0  0  0
   20.3440   19.4926   21.0709 C   0  0  0  0  0  0  0  0  0  0  0  0
   20.2456   20.4446   21.6093 H   0  0  0  0  0  0  0  0  0  0  0  0
   21.2577   19.0056   21.4386 H   0  0  0  0  0  0  0  0  0  0  0  0
   19.1201   18.5934   21.3597 C   0  0  0  0  0  0  0  0  0  0  0  0
   18.2041   19.1074   21.0374 H   0  0  0  0  0  0  0  0  0  0  0  0
   19.1927   17.6853   20.7454 H   0  0  0  0  0  0  0  0  0  0  0  0
   18.9777   18.1687   22.8440 C   0  0  0  0  0  0  0  0  0  0  0  0
   19.8522   17.5784   23.1448 H   0  0  0  0  0  0  0  0  0  0  0  0
   18.1200   17.4855   22.9128 H   0  0  0  0  0  0  0  0  0  0  0  0
   18.7386   19.3459   23.8282 C   0  0  0  0  0  0  0  0  0  0  0  0
   18.2208   20.1549   23.2947 H   0  0  0  0  0  0  0  0  0  0  0  0
   18.0372   19.0244   24.6086 H   0  0  0  0  0  0  0  0  0  0  0  0
   20.0300   19.9121   24.4873 C   0  0  0  0  0  0  0  0  0  0  0  0
   19.9068   20.9956   24.6143 H   0  0  0  0  0  0  0  0  0  0  0  0
   20.8863   19.7935   23.8129 H   0  0  0  0  0  0  0  0  0  0  0  0
   20.3961   19.3174   25.8698 C   0  0  2  0  0  0  0  0  0  0  0  0
   21.3185   19.8068   26.1975 H   0  0  0  0  0  0  0  0  0  0  0  0
   20.6704   17.8057   25.8118 C   0  0  0  0  0  0  0  0  0  0  0  0
   19.7638   17.2413   25.5621 H   0  0  0  0  0  0  0  0  0  0  0  0
   21.4389   17.5781   25.0629 H   0  0  0  0  0  0  0  0  0  0  0  0
   21.0346   17.4440   26.7812 H   0  0  0  0  0  0  0  0  0  0  0  0
   19.3667   19.6357   26.9195 N   0  3  0  0  0  0  0  0  0  0  0  0
   19.6542   19.2935   27.8409 H   0  0  0  0  0  0  0  0  0  0  0  0
   18.4655   19.2048   26.6996 H   0  0  0  0  0  0  0  0  0  0  0  0
   19.2141   20.6449   27.0019 H   0  0  0  0  0  0  0  0  0  0  0  0
  1  2  1  0  0  0  0
  1  3  1  0  0  0  0
  1  4  1  0  0  0  0
  1  5  1  0  0  0  0
  5  6  1  0  0  0  0
  5  7  1  0  0  0  0
  5  8  1  0  0  0  0
  8  9  1  0  0  0  0
  8 10  1  0  0  0  0
  8 11  1  0  0  0  0
 11 12  1  0  0  0  0
 11 13  1  0  0  0  0
 11 14  1  0  0  0  0
 14 15  1  0  0  0  0
 14 16  1  0  0  0  0
 14 17  1  0  0  0  0
 17 18  1  0  0  0  0
 17 19  1  0  0  0  0
 17 20  1  0  0  0  0
 20 21  1  0  0  0  0
 20 22  1  0  0  0  0
 22 23  1  0  0  0  0
 22 24  1  0  0  0  0
 22 25  1  0  0  0  0
 20 26  1  0  0  0  0
 26 27  1  0  0  0  0
 26 28  1  0  0  0  0
 26 29  1  0  0  0  0
M  END
> <VM2 Rank>
178

> <Conf_Id>
630

> <Probability>
0.00

> <Sum Probability>
100.00

> <Delta G>
6.392

> <G>
40.093

> <E>
1.855

> <-TS>
38.238

> <U+W>
-22.289

> <U>
30.253

> <W>
-52.543

> <W(PB)>
-54.955

> <W(SA)>
2.412

> <Valence>
8.874

> <Coulomb>
20.220

> <VdW>
1.159

> <VdW6>
-11.236

> <VdW12>
12.395

> <Bond>
0.376

> <Angle>
2.277

> <Pdih>
6.221

> <Idih>
0.000

> <Tether>
0.000

$$$$
VeraChem MOL file


 29 28  0  0  0  0  0  0  0  0999 V2000     
   19.7079   18.2252   20.1338 C   0  0  0  0  0  0  0  0  0  0  0  0
   19.3003   17.7580   19.2280 H   0  0  0  0  0  0  0  0  0  0  0  0
   20.8027   18.2019   20.0598 H   0  0  0  0  0  0  0  0  0  0  0  0
   19.4020   17.6081   20.9878 H   0  0  0  0  0  0  0  0  0  0  0  0
   19.1903   19.6734   20.2737 C   0  0  0  0  0  0  0  0  0  0  0  0
   18.0970   19.6599   20.3849 H   0  0  0  0  0  0  0  0  0  0  0  0
   19.3943   20.2126   19.3382 H   0  0  0  0  0  0  0  0  0  0  0  0
   19.8209   20.4659   21.4472 C   0  0  0  0  0  0  0  0  0  0  0  0
   20.9041   20.5701   21.2951 H   0  0  0  0  0  0  0  0  0  0  0  0
   19.4172   21.4872   21.4105 H   0  0  0  0  0  0  0  0  0  0  0  0
   19.5278   19.8792   22.8526 C   0  0  0  0  0  0  0  0  0  0  0  0
   18.5725   19.3366   22.8386 H   0  0  0  0  0  0  0  0  0  0  0  0
   19.4046   20.7208   23.5454 H   0  0  0  0  0  0  0  0  0  0  0  0
   20.6645   18.9687   23.3826 C   0  0  0  0  0  0  0  0  0  0  0  0
   20.9686   18.2665   22.5972 H   0  0  0  0  0  0  0  0  0  0  0  0
   21.5519   19.5817   23.5926 H   0  0  0  0  0  0  0  0  0  0  0  0
   20.3005   18.1415   24.6436 C   0  0  0  0  0  0  0  0  0  0  0  0
   21.1431   17.4648   24.8390 H   0  0  0  0  0  0  0  0  0  0  0  0
   19.4387   17.4938   24.4353 H   0  0  0  0  0  0  0  0  0  0  0  0
   20.0364   18.9792   25.9171 C   0  0  2  0  0  0  0  0  0  0  0  0
   20.7682   19.7920   25.9536 H   0  0  0  0  0  0  0  0  0  0  0  0
   20.2166   18.1125   27.1743 C   0  0  0  0  0  0  0  0  0  0  0  0
   19.5136   17.2700   27.1794 H   0  0  0  0  0  0  0  0  0  0  0  0
   21.2353   17.7084   27.2279 H   0  0  0  0  0  0  0  0  0  0  0  0
   20.0476   18.7046   28.0822 H   0  0  0  0  0  0  0  0  0  0  0  0
   18.6712   19.6104   25.9290 N   0  3  0  0  0  0  0  0  0  0  0  0
   18.5366   20.1943   26.7595 H   0  0  0  0  0  0  0  0  0  0  0  0
   17.9341   18.9003   25.9314 H   0  0  0  0  0  0  0  0  0  0  0  0
   18.5263   20.2023   25.1079 H   0  0  0  0  0  0  0  0  0  0  0  0
  1  2  1  0  0  0  0
  1  3  1  0  0  0  0
  1  4  1  0  0  0  0
  1  5  1  0  0  0  0
  5  6  1  0  0  0  0
  5  7  1  0  0  0  0
  5  8  1  0  0  0  0
  8  9  1  0  0  0  0
  8 10  1  0  0  0  0
  8 11  1  0  0  0  0
 11 12  1  0  0  0  0
 11 13  1  0  0  0  0
 11 14  1  0  0  0  0
 14 15  1  0  0  0  0
 14 16  1  0  0  0  0
 14 17  1  0  0  0  0
 17 18  1  0  0  0  0
 17 19  1  0  0  0  0
 17 20  1  0  0  0  0
 20 21  1  0  0  0  0
 20 22  1  0  0  0  0
 22 23  1  0  0  0  0
 22 24  1  0  0  0  0
 22 25  1  0  0  0  0
 20 26  1  0  0  0  0
 26 27  1  0  0  0  0
 26 28  1  0  0  0  0
 26 29  1  0  0  0  0
M  END
> <VM2 Rank>
179

> <Conf_Id>
1221

> <Probability>
0.00

> <Sum Probability>
100.00

> <Delta G>
6.431

> <G>
40.133

> <E>
2.284

> <-TS>
37.848

> <U+W>
-21.860

> <U>
30.313

> <W>
-52.174

> <W(PB)>
-54.607

> <W(SA)>
2.433

> <Valence>
7.950

> <Coulomb>
21.216

> <VdW>
1.147

> <VdW6>
-10.650

> <VdW12>
11.797

> <Bond>
0.329

> <Angle>
2.264

> <Pdih>
5.357

> <Idih>
0.000

> <Tether>
0.000

$$$$
VeraChem MOL file


 29 28  0  0  0  0  0  0  0  0999 V2000     
   19.0620   20.2259   20.1199 C   0  0  0  0  0  0  0  0  0  0  0  0
   18.5874   19.5458   19.4006 H   0  0  0  0  0  0  0  0  0  0  0  0
   18.3763   20.3564   20.9640 H   0  0  0  0  0  0  0  0  0  0  0  0
   19.1748   21.2018   19.6303 H   0  0  0  0  0  0  0  0  0  0  0  0
   20.4396   19.6832   20.5662 C   0  0  0  0  0  0  0  0  0  0  0  0
   20.9326   20.3992   21.2383 H   0  0  0  0  0  0  0  0  0  0  0  0
   21.0799   19.6147   19.6756 H   0  0  0  0  0  0  0  0  0  0  0  0
   20.3671   18.2835   21.2291 C   0  0  0  0  0  0  0  0  0  0  0  0
   19.5312   17.7066   20.8101 H   0  0  0  0  0  0  0  0  0  0  0  0
   21.2754   17.7292   20.9546 H   0  0  0  0  0  0  0  0  0  0  0  0
   20.2828   18.2996   22.7772 C   0  0  0  0  0  0  0  0  0  0  0  0
   21.1744   18.8006   23.1767 H   0  0  0  0  0  0  0  0  0  0  0  0
   20.3212   17.2609   23.1330 H   0  0  0  0  0  0  0  0  0  0  0  0
   19.0096   18.9763   23.3375 C   0  0  0  0  0  0  0  0  0  0  0  0
   19.0462   20.0543   23.1335 H   0  0  0  0  0  0  0  0  0  0  0  0
   18.1320   18.5844   22.8052 H   0  0  0  0  0  0  0  0  0  0  0  0
   18.7965   18.7637   24.8579 C   0  0  0  0  0  0  0  0  0  0  0  0
   18.6889   17.6936   25.0801 H   0  0  0  0  0  0  0  0  0  0  0  0
   17.8311   19.2178   25.1175 H   0  0  0  0  0  0  0  0  0  0  0  0
   19.9033   19.3921   25.7395 C   0  0  2  0  0  0  0  0  0  0  0  0
   20.4078   20.1671   25.1544 H   0  0  0  0  0  0  0  0  0  0  0  0
   20.9448   18.3476   26.1810 C   0  0  0  0  0  0  0  0  0  0  0  0
   20.4854   17.5717   26.8061 H   0  0  0  0  0  0  0  0  0  0  0  0
   21.4122   17.8548   25.3219 H   0  0  0  0  0  0  0  0  0  0  0  0
   21.7440   18.8223   26.7636 H   0  0  0  0  0  0  0  0  0  0  0  0
   19.3303   20.0842   26.9458 N   0  3  0  0  0  0  0  0  0  0  0  0
   18.6685   20.8191   26.6793 H   0  0  0  0  0  0  0  0  0  0  0  0
   20.0644   20.5246   27.5079 H   0  0  0  0  0  0  0  0  0  0  0  0
   18.8334   19.4269   27.5531 H   0  0  0  0  0  0  0  0  0  0  0  0
  1  2  1  0  0  0  0
  1  3  1  0  0  0  0
  1  4  1  0  0  0  0
  1  5  1  0  0  0  0
  5  6  1  0  0  0  0
  5  7  1  0  0  0  0
  5  8  1  0  0  0  0
  8  9  1  0  0  0  0
  8 10  1  0  0  0  0
  8 11  1  0  0  0  0
 11 12  1  0  0  0  0
 11 13  1  0  0  0  0
 11 14  1  0  0  0  0
 14 15  1  0  0  0  0
 14 16  1  0  0  0  0
 14 17  1  0  0  0  0
 17 18  1  0  0  0  0
 17 19  1  0  0  0  0
 17 20  1  0  0  0  0
 20 21  1  0  0  0  0
 20 22  1  0  0  0  0
 22 23  1  0  0  0  0
 22 24  1  0  0  0  0
 22 25  1  0  0  0  0
 20 26  1  0  0  0  0
 26 27  1  0  0  0  0
 26 28  1  0  0  0  0
 26 29  1  0  0  0  0
M  END
> <VM2 Rank>
180

> <Conf_Id>
283

> <Probability>
0.00

> <Sum Probability>
100.00

> <Delta G>
6.452

> <G>
40.154

> <E>
2.270

> <-TS>
37.884

> <U+W>
-21.875

> <U>
30.521

> <W>
-52.395

> <W(PB)>
-54.825

> <W(SA)>
2.429

> <Valence>
9.223

> <Coulomb>
20.067

> <VdW>
1.231

> <VdW6>
-10.587

> <VdW12>
11.818

> <Bond>
0.308

> <Angle>
2.201

> <Pdih>
6.714

> <Idih>
0.000

> <Tether>
0.000

$$$$
VeraChem MOL file


 29 28  0  0  0  0  0  0  0  0999 V2000     
   20.7439   20.0039   20.0876 C   0  0  0  0  0  0  0  0  0  0  0  0
   20.4606   21.0552   19.9475 H   0  0  0  0  0  0  0  0  0  0  0  0
   21.4088   19.9466   20.9563 H   0  0  0  0  0  0  0  0  0  0  0  0
   21.3214   19.6947   19.2069 H   0  0  0  0  0  0  0  0  0  0  0  0
   19.4911   19.1122   20.2523 C   0  0  0  0  0  0  0  0  0  0  0  0
   19.7816   18.0552   20.3284 H   0  0  0  0  0  0  0  0  0  0  0  0
   18.8941   19.1960   19.3334 H   0  0  0  0  0  0  0  0  0  0  0  0
   18.6008   19.5147   21.4563 C   0  0  0  0  0  0  0  0  0  0  0  0
   18.6795   20.5946   21.6427 H   0  0  0  0  0  0  0  0  0  0  0  0
   17.5525   19.3388   21.1779 H   0  0  0  0  0  0  0  0  0  0  0  0
   18.8732   18.7257   22.7629 C   0  0  0  0  0  0  0  0  0  0  0  0
   18.6978   17.6561   22.5827 H   0  0  0  0  0  0  0  0  0  0  0  0
   18.1242   19.0298   23.5023 H   0  0  0  0  0  0  0  0  0  0  0  0
   20.2997   18.9175   23.3362 C   0  0  0  0  0  0  0  0  0  0  0  0
   21.0113   18.4479   22.6447 H   0  0  0  0  0  0  0  0  0  0  0  0
   20.5605   19.9842   23.3730 H   0  0  0  0  0  0  0  0  0  0  0  0
   20.5014   18.2738   24.7332 C   0  0  0  0  0  0  0  0  0  0  0  0
   21.5477   17.9479   24.8048 H   0  0  0  0  0  0  0  0  0  0  0  0
   19.8952   17.3628   24.8251 H   0  0  0  0  0  0  0  0  0  0  0  0
   20.2251   19.2290   25.9178 C   0  0  2  0  0  0  0  0  0  0  0  0
   20.8635   20.1098   25.7986 H   0  0  0  0  0  0  0  0  0  0  0  0
   20.5911   18.5482   27.2465 C   0  0  0  0  0  0  0  0  0  0  0  0
   21.6451   18.2434   27.2516 H   0  0  0  0  0  0  0  0  0  0  0  0
   20.4396   19.2340   28.0891 H   0  0  0  0  0  0  0  0  0  0  0  0
   19.9765   17.6555   27.4173 H   0  0  0  0  0  0  0  0  0  0  0  0
   18.8096   19.7309   25.9611 N   0  3  0  0  0  0  0  0  0  0  0  0
   18.6669   20.3818   26.7387 H   0  0  0  0  0  0  0  0  0  0  0  0
   18.1455   18.9610   26.0776 H   0  0  0  0  0  0  0  0  0  0  0  0
   18.5679   20.2240   25.0971 H   0  0  0  0  0  0  0  0  0  0  0  0
  1  2  1  0  0  0  0
  1  3  1  0  0  0  0
  1  4  1  0  0  0  0
  1  5  1  0  0  0  0
  5  6  1  0  0  0  0
  5  7  1  0  0  0  0
  5  8  1  0  0  0  0
  8  9  1  0  0  0  0
  8 10  1  0  0  0  0
  8 11  1  0  0  0  0
 11 12  1  0  0  0  0
 11 13  1  0  0  0  0
 11 14  1  0  0  0  0
 14 15  1  0  0  0  0
 14 16  1  0  0  0  0
 14 17  1  0  0  0  0
 17 18  1  0  0  0  0
 17 19  1  0  0  0  0
 17 20  1  0  0  0  0
 20 21  1  0  0  0  0
 20 22  1  0  0  0  0
 22 23  1  0  0  0  0
 22 24  1  0  0  0  0
 22 25  1  0  0  0  0
 20 26  1  0  0  0  0
 26 27  1  0  0  0  0
 26 28  1  0  0  0  0
 26 29  1  0  0  0  0
M  END
> <VM2 Rank>
181

> <Conf_Id>
482

> <Probability>
0.00

> <Sum Probability>
100.00

> <Delta G>
6.519

> <G>
40.221

> <E>
2.431

> <-TS>
37.789

> <U+W>
-21.713

> <U>
30.319

> <W>
-52.032

> <W(PB)>
-54.489

> <W(SA)>
2.457

> <Valence>
8.319

> <Coulomb>
20.774

> <VdW>
1.226

> <VdW6>
-10.363

> <VdW12>
11.589

> <Bond>
0.335

> <Angle>
2.135

> <Pdih>
5.849

> <Idih>
0.000

> <Tether>
0.000

$$$$
VeraChem MOL file


 29 28  0  0  0  0  0  0  0  0999 V2000     
   19.5200   21.1212   21.1046 C   0  0  0  0  0  0  0  0  0  0  0  0
   20.0780   21.6399   21.8950 H   0  0  0  0  0  0  0  0  0  0  0  0
   20.1275   21.1371   20.1904 H   0  0  0  0  0  0  0  0  0  0  0  0
   18.6027   21.6918   20.9098 H   0  0  0  0  0  0  0  0  0  0  0  0
   19.1835   19.6742   21.5211 C   0  0  0  0  0  0  0  0  0  0  0  0
   18.5932   19.1955   20.7272 H   0  0  0  0  0  0  0  0  0  0  0  0
   18.5422   19.6920   22.4103 H   0  0  0  0  0  0  0  0  0  0  0  0
   20.4622   18.8425   21.7824 C   0  0  0  0  0  0  0  0  0  0  0  0
   20.9991   18.7385   20.8293 H   0  0  0  0  0  0  0  0  0  0  0  0
   21.1492   19.3756   22.4529 H   0  0  0  0  0  0  0  0  0  0  0  0
   20.1620   17.4276   22.3380 C   0  0  0  0  0  0  0  0  0  0  0  0
   20.8630   16.7245   21.8671 H   0  0  0  0  0  0  0  0  0  0  0  0
   19.1627   17.0986   22.0212 H   0  0  0  0  0  0  0  0  0  0  0  0
   20.3111   17.2683   23.8753 C   0  0  0  0  0  0  0  0  0  0  0  0
   20.1511   16.2062   24.1069 H   0  0  0  0  0  0  0  0  0  0  0  0
   21.3473   17.4717   24.1716 H   0  0  0  0  0  0  0  0  0  0  0  0
   19.3146   18.0897   24.7387 C   0  0  0  0  0  0  0  0  0  0  0  0
   19.2189   17.6040   25.7189 H   0  0  0  0  0  0  0  0  0  0  0  0
   18.3196   18.0282   24.2792 H   0  0  0  0  0  0  0  0  0  0  0  0
   19.6890   19.5743   24.9697 C   0  0  2  0  0  0  0  0  0  0  0  0
   19.8798   20.0456   24.0031 H   0  0  0  0  0  0  0  0  0  0  0  0
   20.9498   19.7286   25.8391 C   0  0  0  0  0  0  0  0  0  0  0  0
   20.8296   19.2246   26.8061 H   0  0  0  0  0  0  0  0  0  0  0  0
   21.8336   19.3127   25.3427 H   0  0  0  0  0  0  0  0  0  0  0  0
   21.1573   20.7883   26.0325 H   0  0  0  0  0  0  0  0  0  0  0  0
   18.5437   20.3296   25.5852 N   0  3  0  0  0  0  0  0  0  0  0  0
   17.7017   20.2791   25.0048 H   0  0  0  0  0  0  0  0  0  0  0  0
   18.7719   21.3204   25.7071 H   0  0  0  0  0  0  0  0  0  0  0  0
   18.3042   19.9563   26.5078 H   0  0  0  0  0  0  0  0  0  0  0  0
  1  2  1  0  0  0  0
  1  3  1  0  0  0  0
  1  4  1  0  0  0  0
  1  5  1  0  0  0  0
  5  6  1  0  0  0  0
  5  7  1  0  0  0  0
  5  8  1  0  0  0  0
  8  9  1  0  0  0  0
  8 10  1  0  0  0  0
  8 11  1  0  0  0  0
 11 12  1  0  0  0  0
 11 13  1  0  0  0  0
 11 14  1  0  0  0  0
 14 15  1  0  0  0  0
 14 16  1  0  0  0  0
 14 17  1  0  0  0  0
 17 18  1  0  0  0  0
 17 19  1  0  0  0  0
 17 20  1  0  0  0  0
 20 21  1  0  0  0  0
 20 22  1  0  0  0  0
 22 23  1  0  0  0  0
 22 24  1  0  0  0  0
 22 25  1  0  0  0  0
 20 26  1  0  0  0  0
 26 27  1  0  0  0  0
 26 28  1  0  0  0  0
 26 29  1  0  0  0  0
M  END
> <VM2 Rank>
182

> <Conf_Id>
24

> <Probability>
0.00

> <Sum Probability>
100.00

> <Delta G>
6.526

> <G>
40.228

> <E>
1.928

> <-TS>
38.300

> <U+W>
-22.216

> <U>
30.677

> <W>
-52.893

> <W(PB)>
-55.271

> <W(SA)>
2.378

> <Valence>
8.876

> <Coulomb>
21.329

> <VdW>
0.472

> <VdW6>
-11.982

> <VdW12>
12.454

> <Bond>
0.338

> <Angle>
2.799

> <Pdih>
5.739

> <Idih>
0.000

> <Tether>
0.000

$$$$
VeraChem MOL file


 29 28  0  0  0  0  0  0  0  0999 V2000     
   18.4715   18.0978   21.4330 C   0  0  0  0  0  0  0  0  0  0  0  0
   17.3748   18.1402   21.4198 H   0  0  0  0  0  0  0  0  0  0  0  0
   18.7822   17.2961   20.7505 H   0  0  0  0  0  0  0  0  0  0  0  0
   18.7828   17.8156   22.4440 H   0  0  0  0  0  0  0  0  0  0  0  0
   19.0719   19.4544   20.9964 C   0  0  0  0  0  0  0  0  0  0  0  0
   18.6785   20.2718   21.6153 H   0  0  0  0  0  0  0  0  0  0  0  0
   18.7250   19.6611   19.9743 H   0  0  0  0  0  0  0  0  0  0  0  0
   20.6212   19.4696   21.0021 C   0  0  0  0  0  0  0  0  0  0  0  0
   21.0107   18.4646   20.7889 H   0  0  0  0  0  0  0  0  0  0  0  0
   20.9531   20.0954   20.1622 H   0  0  0  0  0  0  0  0  0  0  0  0
   21.2845   20.0362   22.2867 C   0  0  0  0  0  0  0  0  0  0  0  0
   20.9708   21.0773   22.4438 H   0  0  0  0  0  0  0  0  0  0  0  0
   22.3661   20.0834   22.0988 H   0  0  0  0  0  0  0  0  0  0  0  0
   21.0654   19.2062   23.5777 C   0  0  0  0  0  0  0  0  0  0  0  0
   20.9579   18.1456   23.3193 H   0  0  0  0  0  0  0  0  0  0  0  0
   21.9748   19.2760   24.1905 H   0  0  0  0  0  0  0  0  0  0  0  0
   19.8737   19.7068   24.4361 C   0  0  0  0  0  0  0  0  0  0  0  0
   18.9364   19.6488   23.8720 H   0  0  0  0  0  0  0  0  0  0  0  0
   20.0318   20.7706   24.6569 H   0  0  0  0  0  0  0  0  0  0  0  0
   19.7157   18.9513   25.7750 C   0  0  2  0  0  0  0  0  0  0  0  0
   20.6795   18.9660   26.2933 H   0  0  0  0  0  0  0  0  0  0  0  0
   19.2945   17.4855   25.5674 C   0  0  0  0  0  0  0  0  0  0  0  0
   19.1539   16.9845   26.5331 H   0  0  0  0  0  0  0  0  0  0  0  0
   18.3518   17.4185   25.0103 H   0  0  0  0  0  0  0  0  0  0  0  0
   20.0588   16.9229   25.0194 H   0  0  0  0  0  0  0  0  0  0  0  0
   18.7376   19.6481   26.6795 N   0  3  0  0  0  0  0  0  0  0  0  0
   19.0210   20.6139   26.8686 H   0  0  0  0  0  0  0  0  0  0  0  0
   18.6591   19.1717   27.5826 H   0  0  0  0  0  0  0  0  0  0  0  0
   17.8014   19.6770   26.2669 H   0  0  0  0  0  0  0  0  0  0  0  0
  1  2  1  0  0  0  0
  1  3  1  0  0  0  0
  1  4  1  0  0  0  0
  1  5  1  0  0  0  0
  5  6  1  0  0  0  0
  5  7  1  0  0  0  0
  5  8  1  0  0  0  0
  8  9  1  0  0  0  0
  8 10  1  0  0  0  0
  8 11  1  0  0  0  0
 11 12  1  0  0  0  0
 11 13  1  0  0  0  0
 11 14  1  0  0  0  0
 14 15  1  0  0  0  0
 14 16  1  0  0  0  0
 14 17  1  0  0  0  0
 17 18  1  0  0  0  0
 17 19  1  0  0  0  0
 17 20  1  0  0  0  0
 20 21  1  0  0  0  0
 20 22  1  0  0  0  0
 22 23  1  0  0  0  0
 22 24  1  0  0  0  0
 22 25  1  0  0  0  0
 20 26  1  0  0  0  0
 26 27  1  0  0  0  0
 26 28  1  0  0  0  0
 26 29  1  0  0  0  0
M  END
> <VM2 Rank>
183

> <Conf_Id>
78

> <Probability>
0.00

> <Sum Probability>
100.00

> <Delta G>
6.628

> <G>
40.330

> <E>
1.888

> <-TS>
38.442

> <U+W>
-22.257

> <U>
30.536

> <W>
-52.792

> <W(PB)>
-55.156

> <W(SA)>
2.364

> <Valence>
9.319

> <Coulomb>
20.399

> <VdW>
0.817

> <VdW6>
-11.400

> <VdW12>
12.217

> <Bond>
0.345

> <Angle>
2.705

> <Pdih>
6.269

> <Idih>
0.000

> <Tether>
0.000

$$$$
VeraChem MOL file


 29 28  0  0  0  0  0  0  0  0999 V2000     
   20.9074   19.1713   20.3035 C   0  0  0  0  0  0  0  0  0  0  0  0
   21.9841   19.1193   20.0964 H   0  0  0  0  0  0  0  0  0  0  0  0
   20.5073   18.1526   20.2339 H   0  0  0  0  0  0  0  0  0  0  0  0
   20.4437   19.7750   19.5126 H   0  0  0  0  0  0  0  0  0  0  0  0
   20.6540   19.7921   21.6963 C   0  0  0  0  0  0  0  0  0  0  0  0
   21.1384   20.7778   21.7328 H   0  0  0  0  0  0  0  0  0  0  0  0
   21.1456   19.1786   22.4609 H   0  0  0  0  0  0  0  0  0  0  0  0
   19.1470   19.9663   22.0165 C   0  0  0  0  0  0  0  0  0  0  0  0
   19.0177   20.6626   22.8555 H   0  0  0  0  0  0  0  0  0  0  0  0
   18.6694   20.4587   21.1582 H   0  0  0  0  0  0  0  0  0  0  0  0
   18.3955   18.6417   22.3147 C   0  0  0  0  0  0  0  0  0  0  0  0
   18.8720   17.7992   21.7978 H   0  0  0  0  0  0  0  0  0  0  0  0
   17.3910   18.7200   21.8763 H   0  0  0  0  0  0  0  0  0  0  0  0
   18.2165   18.2982   23.8180 C   0  0  0  0  0  0  0  0  0  0  0  0
   17.6315   19.0834   24.3138 H   0  0  0  0  0  0  0  0  0  0  0  0
   17.5927   17.3953   23.8723 H   0  0  0  0  0  0  0  0  0  0  0  0
   19.5273   18.0111   24.5985 C   0  0  0  0  0  0  0  0  0  0  0  0
   20.2062   17.4321   23.9588 H   0  0  0  0  0  0  0  0  0  0  0  0
   19.2930   17.3610   25.4519 H   0  0  0  0  0  0  0  0  0  0  0  0
   20.2486   19.2696   25.1332 C   0  0  2  0  0  0  0  0  0  0  0  0
   20.4192   19.9577   24.3022 H   0  0  0  0  0  0  0  0  0  0  0  0
   21.6144   18.8895   25.7262 C   0  0  0  0  0  0  0  0  0  0  0  0
   22.2449   18.4020   24.9722 H   0  0  0  0  0  0  0  0  0  0  0  0
   22.1468   19.7817   26.0782 H   0  0  0  0  0  0  0  0  0  0  0  0
   21.5018   18.2018   26.5737 H   0  0  0  0  0  0  0  0  0  0  0  0
   19.4254   20.0161   26.1472 N   0  3  0  0  0  0  0  0  0  0  0  0
   18.5275   20.3123   25.7555 H   0  0  0  0  0  0  0  0  0  0  0  0
   19.9091   20.8562   26.4771 H   0  0  0  0  0  0  0  0  0  0  0  0
   19.2275   19.4352   26.9663 H   0  0  0  0  0  0  0  0  0  0  0  0
  1  2  1  0  0  0  0
  1  3  1  0  0  0  0
  1  4  1  0  0  0  0
  1  5  1  0  0  0  0
  5  6  1  0  0  0  0
  5  7  1  0  0  0  0
  5  8  1  0  0  0  0
  8  9  1  0  0  0  0
  8 10  1  0  0  0  0
  8 11  1  0  0  0  0
 11 12  1  0  0  0  0
 11 13  1  0  0  0  0
 11 14  1  0  0  0  0
 14 15  1  0  0  0  0
 14 16  1  0  0  0  0
 14 17  1  0  0  0  0
 17 18  1  0  0  0  0
 17 19  1  0  0  0  0
 17 20  1  0  0  0  0
 20 21  1  0  0  0  0
 20 22  1  0  0  0  0
 22 23  1  0  0  0  0
 22 24  1  0  0  0  0
 22 25  1  0  0  0  0
 20 26  1  0  0  0  0
 26 27  1  0  0  0  0
 26 28  1  0  0  0  0
 26 29  1  0  0  0  0
M  END
> <VM2 Rank>
184

> <Conf_Id>
1051

> <Probability>
0.00

> <Sum Probability>
100.00

> <Delta G>
6.643

> <G>
40.345

> <E>
1.950

> <-TS>
38.395

> <U+W>
-22.195

> <U>
30.560

> <W>
-52.755

> <W(PB)>
-55.119

> <W(SA)>
2.365

> <Valence>
8.892

> <Coulomb>
21.063

> <VdW>
0.604

> <VdW6>
-12.045

> <VdW12>
12.649

> <Bond>
0.360

> <Angle>
2.555

> <Pdih>
5.977

> <Idih>
0.000

> <Tether>
0.000

$$$$
VeraChem MOL file


 29 28  0  0  0  0  0  0  0  0999 V2000     
   18.6836   20.2504   20.5822 C   0  0  0  0  0  0  0  0  0  0  0  0
   18.8431   20.8567   21.4806 H   0  0  0  0  0  0  0  0  0  0  0  0
   19.2837   20.6843   19.7719 H   0  0  0  0  0  0  0  0  0  0  0  0
   17.6269   20.3437   20.3003 H   0  0  0  0  0  0  0  0  0  0  0  0
   19.0543   18.7660   20.8077 C   0  0  0  0  0  0  0  0  0  0  0  0
   18.8553   18.2218   19.8739 H   0  0  0  0  0  0  0  0  0  0  0  0
   18.3952   18.3183   21.5645 H   0  0  0  0  0  0  0  0  0  0  0  0
   20.5408   18.5566   21.1952 C   0  0  0  0  0  0  0  0  0  0  0  0
   20.8916   17.6314   20.7173 H   0  0  0  0  0  0  0  0  0  0  0  0
   21.1611   19.3598   20.7743 H   0  0  0  0  0  0  0  0  0  0  0  0
   20.8015   18.4228   22.7176 C   0  0  0  0  0  0  0  0  0  0  0  0
   21.8687   18.2060   22.8621 H   0  0  0  0  0  0  0  0  0  0  0  0
   20.2613   17.5468   23.0950 H   0  0  0  0  0  0  0  0  0  0  0  0
   20.4289   19.6834   23.5381 C   0  0  0  0  0  0  0  0  0  0  0  0
   20.9262   20.5480   23.0775 H   0  0  0  0  0  0  0  0  0  0  0  0
   19.3519   19.8763   23.4720 H   0  0  0  0  0  0  0  0  0  0  0  0
   20.8662   19.6069   25.0280 C   0  0  0  0  0  0  0  0  0  0  0  0
   21.1589   20.6143   25.3519 H   0  0  0  0  0  0  0  0  0  0  0  0
   21.7758   18.9994   25.1214 H   0  0  0  0  0  0  0  0  0  0  0  0
   19.8003   19.0916   26.0269 C   0  0  2  0  0  0  0  0  0  0  0  0
   20.2667   19.0843   27.0170 H   0  0  0  0  0  0  0  0  0  0  0  0
   19.3379   17.6573   25.7247 C   0  0  0  0  0  0  0  0  0  0  0  0
   20.1974   16.9850   25.6121 H   0  0  0  0  0  0  0  0  0  0  0  0
   18.7207   17.2736   26.5462 H   0  0  0  0  0  0  0  0  0  0  0  0
   18.7369   17.6139   24.8089 H   0  0  0  0  0  0  0  0  0  0  0  0
   18.6224   20.0211   26.1336 N   0  3  0  0  0  0  0  0  0  0  0  0
   18.1165   20.0837   25.2468 H   0  0  0  0  0  0  0  0  0  0  0  0
   18.9141   20.9686   26.3903 H   0  0  0  0  0  0  0  0  0  0  0  0
   17.9583   19.7022   26.8449 H   0  0  0  0  0  0  0  0  0  0  0  0
  1  2  1  0  0  0  0
  1  3  1  0  0  0  0
  1  4  1  0  0  0  0
  1  5  1  0  0  0  0
  5  6  1  0  0  0  0
  5  7  1  0  0  0  0
  5  8  1  0  0  0  0
  8  9  1  0  0  0  0
  8 10  1  0  0  0  0
  8 11  1  0  0  0  0
 11 12  1  0  0  0  0
 11 13  1  0  0  0  0
 11 14  1  0  0  0  0
 14 15  1  0  0  0  0
 14 16  1  0  0  0  0
 14 17  1  0  0  0  0
 17 18  1  0  0  0  0
 17 19  1  0  0  0  0
 17 20  1  0  0  0  0
 20 21  1  0  0  0  0
 20 22  1  0  0  0  0
 22 23  1  0  0  0  0
 22 24  1  0  0  0  0
 22 25  1  0  0  0  0
 20 26  1  0  0  0  0
 26 27  1  0  0  0  0
 26 28  1  0  0  0  0
 26 29  1  0  0  0  0
M  END
> <VM2 Rank>
185

> <Conf_Id>
972

> <Probability>
0.00

> <Sum Probability>
100.00

> <Delta G>
6.647

> <G>
40.349

> <E>
2.326

> <-TS>
38.023

> <U+W>
-21.819

> <U>
30.956

> <W>
-52.775

> <W(PB)>
-55.160

> <W(SA)>
2.385

> <Valence>
9.252

> <Coulomb>
20.527

> <VdW>
1.177

> <VdW6>
-11.186

> <VdW12>
12.363

> <Bond>
0.373

> <Angle>
2.560

> <Pdih>
6.320

> <Idih>
0.000

> <Tether>
0.000

$$$$
VeraChem MOL file


 29 28  0  0  0  0  0  0  0  0999 V2000     
   20.4166   20.0962   20.2456 C   0  0  0  0  0  0  0  0  0  0  0  0
   20.4074   20.7174   19.3407 H   0  0  0  0  0  0  0  0  0  0  0  0
   20.5469   20.7675   21.1035 H   0  0  0  0  0  0  0  0  0  0  0  0
   21.2872   19.4303   20.1869 H   0  0  0  0  0  0  0  0  0  0  0  0
   19.1051   19.2888   20.3591 C   0  0  0  0  0  0  0  0  0  0  0  0
   18.9435   18.7448   19.4181 H   0  0  0  0  0  0  0  0  0  0  0  0
   18.2583   19.9821   20.4590 H   0  0  0  0  0  0  0  0  0  0  0  0
   19.0820   18.2703   21.5274 C   0  0  0  0  0  0  0  0  0  0  0  0
   18.1292   17.7257   21.4719 H   0  0  0  0  0  0  0  0  0  0  0  0
   19.8648   17.5127   21.3846 H   0  0  0  0  0  0  0  0  0  0  0  0
   19.1961   18.9042   22.9381 C   0  0  0  0  0  0  0  0  0  0  0  0
   18.5595   18.3242   23.6173 H   0  0  0  0  0  0  0  0  0  0  0  0
   18.7930   19.9261   22.9224 H   0  0  0  0  0  0  0  0  0  0  0  0
   20.6426   18.8987   23.4946 C   0  0  0  0  0  0  0  0  0  0  0  0
   20.9639   17.8632   23.6686 H   0  0  0  0  0  0  0  0  0  0  0  0
   21.3280   19.2894   22.7332 H   0  0  0  0  0  0  0  0  0  0  0  0
   20.8433   19.7418   24.7853 C   0  0  0  0  0  0  0  0  0  0  0  0
   20.6289   20.7959   24.5659 H   0  0  0  0  0  0  0  0  0  0  0  0
   21.9103   19.7096   25.0423 H   0  0  0  0  0  0  0  0  0  0  0  0
   20.0469   19.3185   26.0460 C   0  0  2  0  0  0  0  0  0  0  0  0
   20.4668   19.8787   26.8871 H   0  0  0  0  0  0  0  0  0  0  0  0
   20.2061   17.8223   26.3670 C   0  0  0  0  0  0  0  0  0  0  0  0
   19.7229   17.1921   25.6109 H   0  0  0  0  0  0  0  0  0  0  0  0
   21.2667   17.5467   26.4185 H   0  0  0  0  0  0  0  0  0  0  0  0
   19.7536   17.5877   27.3383 H   0  0  0  0  0  0  0  0  0  0  0  0
   18.5973   19.7151   25.9908 N   0  3  0  0  0  0  0  0  0  0  0  0
   18.4907   20.7240   25.8515 H   0  0  0  0  0  0  0  0  0  0  0  0
   18.1109   19.4732   26.8589 H   0  0  0  0  0  0  0  0  0  0  0  0
   18.1132   19.2447   25.2234 H   0  0  0  0  0  0  0  0  0  0  0  0
  1  2  1  0  0  0  0
  1  3  1  0  0  0  0
  1  4  1  0  0  0  0
  1  5  1  0  0  0  0
  5  6  1  0  0  0  0
  5  7  1  0  0  0  0
  5  8  1  0  0  0  0
  8  9  1  0  0  0  0
  8 10  1  0  0  0  0
  8 11  1  0  0  0  0
 11 12  1  0  0  0  0
 11 13  1  0  0  0  0
 11 14  1  0  0  0  0
 14 15  1  0  0  0  0
 14 16  1  0  0  0  0
 14 17  1  0  0  0  0
 17 18  1  0  0  0  0
 17 19  1  0  0  0  0
 17 20  1  0  0  0  0
 20 21  1  0  0  0  0
 20 22  1  0  0  0  0
 22 23  1  0  0  0  0
 22 24  1  0  0  0  0
 22 25  1  0  0  0  0
 20 26  1  0  0  0  0
 26 27  1  0  0  0  0
 26 28  1  0  0  0  0
 26 29  1  0  0  0  0
M  END
> <VM2 Rank>
186

> <Conf_Id>
208

> <Probability>
0.00

> <Sum Probability>
100.00

> <Delta G>
6.697

> <G>
40.398

> <E>
1.999

> <-TS>
38.399

> <U+W>
-22.145

> <U>
30.458

> <W>
-52.603

> <W(PB)>
-55.023

> <W(SA)>
2.420

> <Valence>
8.067

> <Coulomb>
21.369

> <VdW>
1.022

> <VdW6>
-11.649

> <VdW12>
12.671

> <Bond>
0.379

> <Angle>
2.831

> <Pdih>
4.858

> <Idih>
0.000

> <Tether>
0.000

$$$$
VeraChem MOL file


 29 28  0  0  0  0  0  0  0  0999 V2000     
   19.8244   20.5340   20.1561 C   0  0  0  0  0  0  0  0  0  0  0  0
   19.2148   20.9470   19.3420 H   0  0  0  0  0  0  0  0  0  0  0  0
   19.5182   21.0303   21.0832 H   0  0  0  0  0  0  0  0  0  0  0  0
   20.8701   20.8028   19.9579 H   0  0  0  0  0  0  0  0  0  0  0  0
   19.6542   18.9988   20.2326 C   0  0  0  0  0  0  0  0  0  0  0  0
   19.9432   18.5784   19.2592 H   0  0  0  0  0  0  0  0  0  0  0  0
   18.5959   18.7381   20.3719 H   0  0  0  0  0  0  0  0  0  0  0  0
   20.5221   18.3346   21.3325 C   0  0  0  0  0  0  0  0  0  0  0  0
   20.8403   17.3489   20.9659 H   0  0  0  0  0  0  0  0  0  0  0  0
   21.4479   18.9066   21.4835 H   0  0  0  0  0  0  0  0  0  0  0  0
   19.8031   18.1160   22.6887 C   0  0  0  0  0  0  0  0  0  0  0  0
   20.4803   17.5580   23.3464 H   0  0  0  0  0  0  0  0  0  0  0  0
   18.9313   17.4650   22.5360 H   0  0  0  0  0  0  0  0  0  0  0  0
   19.3479   19.4217   23.3866 C   0  0  0  0  0  0  0  0  0  0  0  0
   20.1617   20.1599   23.3921 H   0  0  0  0  0  0  0  0  0  0  0  0
   18.5343   19.8612   22.7948 H   0  0  0  0  0  0  0  0  0  0  0  0
   18.8240   19.1959   24.8295 C   0  0  0  0  0  0  0  0  0  0  0  0
   18.4258   18.1781   24.9358 H   0  0  0  0  0  0  0  0  0  0  0  0
   17.9702   19.8687   24.9851 H   0  0  0  0  0  0  0  0  0  0  0  0
   19.8553   19.4874   25.9462 C   0  0  2  0  0  0  0  0  0  0  0  0
   20.1946   20.5217   25.8336 H   0  0  0  0  0  0  0  0  0  0  0  0
   21.0871   18.5690   25.8769 C   0  0  0  0  0  0  0  0  0  0  0  0
   20.7966   17.5115   25.9062 H   0  0  0  0  0  0  0  0  0  0  0  0
   21.6606   18.7482   24.9600 H   0  0  0  0  0  0  0  0  0  0  0  0
   21.7604   18.7606   26.7214 H   0  0  0  0  0  0  0  0  0  0  0  0
   19.2178   19.3985   27.3049 N   0  3  0  0  0  0  0  0  0  0  0  0
   18.4232   20.0389   27.3914 H   0  0  0  0  0  0  0  0  0  0  0  0
   19.8829   19.6366   28.0463 H   0  0  0  0  0  0  0  0  0  0  0  0
   18.8737   18.4535   27.4951 H   0  0  0  0  0  0  0  0  0  0  0  0
  1  2  1  0  0  0  0
  1  3  1  0  0  0  0
  1  4  1  0  0  0  0
  1  5  1  0  0  0  0
  5  6  1  0  0  0  0
  5  7  1  0  0  0  0
  5  8  1  0  0  0  0
  8  9  1  0  0  0  0
  8 10  1  0  0  0  0
  8 11  1  0  0  0  0
 11 12  1  0  0  0  0
 11 13  1  0  0  0  0
 11 14  1  0  0  0  0
 14 15  1  0  0  0  0
 14 16  1  0  0  0  0
 14 17  1  0  0  0  0
 17 18  1  0  0  0  0
 17 19  1  0  0  0  0
 17 20  1  0  0  0  0
 20 21  1  0  0  0  0
 20 22  1  0  0  0  0
 22 23  1  0  0  0  0
 22 24  1  0  0  0  0
 22 25  1  0  0  0  0
 20 26  1  0  0  0  0
 26 27  1  0  0  0  0
 26 28  1  0  0  0  0
 26 29  1  0  0  0  0
M  END
> <VM2 Rank>
187

> <Conf_Id>
70

> <Probability>
0.00

> <Sum Probability>
100.00

> <Delta G>
6.701

> <G>
40.403

> <E>
2.337

> <-TS>
38.066

> <U+W>
-21.808

> <U>
30.372

> <W>
-52.180

> <W(PB)>
-54.600

> <W(SA)>
2.420

> <Valence>
9.265

> <Coulomb>
19.847

> <VdW>
1.260

> <VdW6>
-10.647

> <VdW12>
11.907

> <Bond>
0.333

> <Angle>
2.435

> <Pdih>
6.497

> <Idih>
0.000

> <Tether>
0.000

$$$$
VeraChem MOL file


 29 28  0  0  0  0  0  0  0  0999 V2000     
   18.9830   20.4261   20.4035 C   0  0  0  0  0  0  0  0  0  0  0  0
   17.9242   20.1664   20.2749 H   0  0  0  0  0  0  0  0  0  0  0  0
   19.0862   20.9617   21.3534 H   0  0  0  0  0  0  0  0  0  0  0  0
   19.2549   21.1220   19.5993 H   0  0  0  0  0  0  0  0  0  0  0  0
   19.8720   19.1619   20.3472 C   0  0  0  0  0  0  0  0  0  0  0  0
   20.9335   19.4378   20.4165 H   0  0  0  0  0  0  0  0  0  0  0  0
   19.7433   18.7028   19.3570 H   0  0  0  0  0  0  0  0  0  0  0  0
   19.5173   18.1083   21.4279 C   0  0  0  0  0  0  0  0  0  0  0  0
   18.4465   18.1568   21.6693 H   0  0  0  0  0  0  0  0  0  0  0  0
   19.6778   17.1107   20.9963 H   0  0  0  0  0  0  0  0  0  0  0  0
   20.3610   18.1941   22.7260 C   0  0  0  0  0  0  0  0  0  0  0  0
   21.4215   18.0476   22.4793 H   0  0  0  0  0  0  0  0  0  0  0  0
   20.0834   17.3487   23.3665 H   0  0  0  0  0  0  0  0  0  0  0  0
   20.1972   19.5222   23.5058 C   0  0  0  0  0  0  0  0  0  0  0  0
   20.6463   20.3262   22.9084 H   0  0  0  0  0  0  0  0  0  0  0  0
   19.1337   19.7722   23.6102 H   0  0  0  0  0  0  0  0  0  0  0  0
   20.8975   19.5128   24.8933 C   0  0  0  0  0  0  0  0  0  0  0  0
   21.3222   20.5093   25.0722 H   0  0  0  0  0  0  0  0  0  0  0  0
   21.7583   18.8315   24.8729 H   0  0  0  0  0  0  0  0  0  0  0  0
   19.9963   19.1682   26.1050 C   0  0  2  0  0  0  0  0  0  0  0  0
   20.6311   19.1945   26.9961 H   0  0  0  0  0  0  0  0  0  0  0  0
   19.3850   17.7607   26.0147 C   0  0  0  0  0  0  0  0  0  0  0  0
   18.8686   17.5064   26.9484 H   0  0  0  0  0  0  0  0  0  0  0  0
   18.6551   17.6909   25.1993 H   0  0  0  0  0  0  0  0  0  0  0  0
   20.1649   17.0068   25.8508 H   0  0  0  0  0  0  0  0  0  0  0  0
   18.9268   20.2017   26.3307 N   0  3  0  0  0  0  0  0  0  0  0  0
   18.3801   19.9961   27.1718 H   0  0  0  0  0  0  0  0  0  0  0  0
   18.2756   20.2410   25.5428 H   0  0  0  0  0  0  0  0  0  0  0  0
   19.3272   21.1370   26.4470 H   0  0  0  0  0  0  0  0  0  0  0  0
  1  2  1  0  0  0  0
  1  3  1  0  0  0  0
  1  4  1  0  0  0  0
  1  5  1  0  0  0  0
  5  6  1  0  0  0  0
  5  7  1  0  0  0  0
  5  8  1  0  0  0  0
  8  9  1  0  0  0  0
  8 10  1  0  0  0  0
  8 11  1  0  0  0  0
 11 12  1  0  0  0  0
 11 13  1  0  0  0  0
 11 14  1  0  0  0  0
 14 15  1  0  0  0  0
 14 16  1  0  0  0  0
 14 17  1  0  0  0  0
 17 18  1  0  0  0  0
 17 19  1  0  0  0  0
 17 20  1  0  0  0  0
 20 21  1  0  0  0  0
 20 22  1  0  0  0  0
 22 23  1  0  0  0  0
 22 24  1  0  0  0  0
 22 25  1  0  0  0  0
 20 26  1  0  0  0  0
 26 27  1  0  0  0  0
 26 28  1  0  0  0  0
 26 29  1  0  0  0  0
M  END
> <VM2 Rank>
188

> <Conf_Id>
526

> <Probability>
0.00

> <Sum Probability>
100.00

> <Delta G>
6.759

> <G>
40.461

> <E>
2.313

> <-TS>
38.148

> <U+W>
-21.831

> <U>
30.788

> <W>
-52.620

> <W(PB)>
-55.022

> <W(SA)>
2.402

> <Valence>
9.278

> <Coulomb>
20.293

> <VdW>
1.217

> <VdW6>
-11.113

> <VdW12>
12.330

> <Bond>
0.365

> <Angle>
2.560

> <Pdih>
6.353

> <Idih>
0.000

> <Tether>
0.000

$$$$
VeraChem MOL file


 29 28  0  0  0  0  0  0  0  0999 V2000     
   20.6281   18.8512   19.9485 C   0  0  0  0  0  0  0  0  0  0  0  0
   21.3606   18.6487   20.7379 H   0  0  0  0  0  0  0  0  0  0  0  0
   20.2959   17.8870   19.5422 H   0  0  0  0  0  0  0  0  0  0  0  0
   21.1441   19.3915   19.1443 H   0  0  0  0  0  0  0  0  0  0  0  0
   19.4256   19.6730   20.4684 C   0  0  0  0  0  0  0  0  0  0  0  0
   18.7384   19.8386   19.6269 H   0  0  0  0  0  0  0  0  0  0  0  0
   19.7547   20.6710   20.7897 H   0  0  0  0  0  0  0  0  0  0  0  0
   18.6509   18.9659   21.6101 C   0  0  0  0  0  0  0  0  0  0  0  0
   17.5780   19.1498   21.4598 H   0  0  0  0  0  0  0  0  0  0  0  0
   18.7762   17.8767   21.5372 H   0  0  0  0  0  0  0  0  0  0  0  0
   19.0112   19.4474   23.0394 C   0  0  0  0  0  0  0  0  0  0  0  0
   18.3491   18.9195   23.7346 H   0  0  0  0  0  0  0  0  0  0  0  0
   18.7804   20.5175   23.1325 H   0  0  0  0  0  0  0  0  0  0  0  0
   20.4856   19.1982   23.4408 C   0  0  0  0  0  0  0  0  0  0  0  0
   20.7212   18.1300   23.3452 H   0  0  0  0  0  0  0  0  0  0  0  0
   21.1376   19.7170   22.7274 H   0  0  0  0  0  0  0  0  0  0  0  0
   20.8706   19.7073   24.8589 C   0  0  0  0  0  0  0  0  0  0  0  0
   20.7416   20.7968   24.9006 H   0  0  0  0  0  0  0  0  0  0  0  0
   21.9475   19.5379   24.9897 H   0  0  0  0  0  0  0  0  0  0  0  0
   20.1511   19.0680   26.0742 C   0  0  2  0  0  0  0  0  0  0  0  0
   20.7199   19.3571   26.9633 H   0  0  0  0  0  0  0  0  0  0  0  0
   20.1450   17.5306   26.0151 C   0  0  0  0  0  0  0  0  0  0  0  0
   19.7603   17.1116   26.9530 H   0  0  0  0  0  0  0  0  0  0  0  0
   19.5146   17.1593   25.1983 H   0  0  0  0  0  0  0  0  0  0  0  0
   21.1611   17.1436   25.8694 H   0  0  0  0  0  0  0  0  0  0  0  0
   18.7679   19.6144   26.2986 N   0  3  0  0  0  0  0  0  0  0  0  0
   18.3443   19.2215   27.1441 H   0  0  0  0  0  0  0  0  0  0  0  0
   18.1496   19.3973   25.5145 H   0  0  0  0  0  0  0  0  0  0  0  0
   18.7812   20.6325   26.4085 H   0  0  0  0  0  0  0  0  0  0  0  0
  1  2  1  0  0  0  0
  1  3  1  0  0  0  0
  1  4  1  0  0  0  0
  1  5  1  0  0  0  0
  5  6  1  0  0  0  0
  5  7  1  0  0  0  0
  5  8  1  0  0  0  0
  8  9  1  0  0  0  0
  8 10  1  0  0  0  0
  8 11  1  0  0  0  0
 11 12  1  0  0  0  0
 11 13  1  0  0  0  0
 11 14  1  0  0  0  0
 14 15  1  0  0  0  0
 14 16  1  0  0  0  0
 14 17  1  0  0  0  0
 17 18  1  0  0  0  0
 17 19  1  0  0  0  0
 17 20  1  0  0  0  0
 20 21  1  0  0  0  0
 20 22  1  0  0  0  0
 22 23  1  0  0  0  0
 22 24  1  0  0  0  0
 22 25  1  0  0  0  0
 20 26  1  0  0  0  0
 26 27  1  0  0  0  0
 26 28  1  0  0  0  0
 26 29  1  0  0  0  0
M  END
> <VM2 Rank>
189

> <Conf_Id>
1234

> <Probability>
0.00

> <Sum Probability>
100.00

> <Delta G>
6.813

> <G>
40.515

> <E>
2.306

> <-TS>
38.209

> <U+W>
-21.838

> <U>
30.733

> <W>
-52.571

> <W(PB)>
-54.996

> <W(SA)>
2.425

> <Valence>
8.311

> <Coulomb>
21.302

> <VdW>
1.120

> <VdW6>
-11.478

> <VdW12>
12.598

> <Bond>
0.388

> <Angle>
3.090

> <Pdih>
4.833

> <Idih>
0.000

> <Tether>
0.000

$$$$
VeraChem MOL file


 29 28  0  0  0  0  0  0  0  0999 V2000     
   18.0361   19.4504   21.5581 C   0  0  0  0  0  0  0  0  0  0  0  0
   18.1994   19.7486   22.5985 H   0  0  0  0  0  0  0  0  0  0  0  0
   17.8353   20.3592   20.9761 H   0  0  0  0  0  0  0  0  0  0  0  0
   17.1328   18.8277   21.5258 H   0  0  0  0  0  0  0  0  0  0  0  0
   19.2453   18.6817   20.9767 C   0  0  0  0  0  0  0  0  0  0  0  0
   19.0106   18.4272   19.9336 H   0  0  0  0  0  0  0  0  0  0  0  0
   19.3824   17.7224   21.4935 H   0  0  0  0  0  0  0  0  0  0  0  0
   20.5607   19.5002   20.9986 C   0  0  0  0  0  0  0  0  0  0  0  0
   21.1328   19.2385   20.0977 H   0  0  0  0  0  0  0  0  0  0  0  0
   20.3416   20.5726   20.9035 H   0  0  0  0  0  0  0  0  0  0  0  0
   21.4884   19.2522   22.2189 C   0  0  0  0  0  0  0  0  0  0  0  0
   22.4181   19.8091   22.0373 H   0  0  0  0  0  0  0  0  0  0  0  0
   21.7850   18.1951   22.2573 H   0  0  0  0  0  0  0  0  0  0  0  0
   20.9279   19.7047   23.5916 C   0  0  0  0  0  0  0  0  0  0  0  0
   21.7654   20.0710   24.2015 H   0  0  0  0  0  0  0  0  0  0  0  0
   20.2584   20.5631   23.4535 H   0  0  0  0  0  0  0  0  0  0  0  0
   20.2307   18.5635   24.3775 C   0  0  0  0  0  0  0  0  0  0  0  0
   20.9437   17.7379   24.5029 H   0  0  0  0  0  0  0  0  0  0  0  0
   19.3882   18.1568   23.8076 H   0  0  0  0  0  0  0  0  0  0  0  0
   19.7409   19.0079   25.7725 C   0  0  2  0  0  0  0  0  0  0  0  0
   20.5933   19.4230   26.3189 H   0  0  0  0  0  0  0  0  0  0  0  0
   19.2038   17.8018   26.5595 C   0  0  0  0  0  0  0  0  0  0  0  0
   18.8874   18.1043   27.5654 H   0  0  0  0  0  0  0  0  0  0  0  0
   18.3431   17.3481   26.0523 H   0  0  0  0  0  0  0  0  0  0  0  0
   19.9786   17.0331   26.6716 H   0  0  0  0  0  0  0  0  0  0  0  0
   18.7022   20.0936   25.7004 N   0  3  0  0  0  0  0  0  0  0  0  0
   18.4117   20.3939   26.6355 H   0  0  0  0  0  0  0  0  0  0  0  0
   17.8643   19.7757   25.2065 H   0  0  0  0  0  0  0  0  0  0  0  0
   19.0584   20.9189   25.2109 H   0  0  0  0  0  0  0  0  0  0  0  0
  1  2  1  0  0  0  0
  1  3  1  0  0  0  0
  1  4  1  0  0  0  0
  1  5  1  0  0  0  0
  5  6  1  0  0  0  0
  5  7  1  0  0  0  0
  5  8  1  0  0  0  0
  8  9  1  0  0  0  0
  8 10  1  0  0  0  0
  8 11  1  0  0  0  0
 11 12  1  0  0  0  0
 11 13  1  0  0  0  0
 11 14  1  0  0  0  0
 14 15  1  0  0  0  0
 14 16  1  0  0  0  0
 14 17  1  0  0  0  0
 17 18  1  0  0  0  0
 17 19  1  0  0  0  0
 17 20  1  0  0  0  0
 20 21  1  0  0  0  0
 20 22  1  0  0  0  0
 22 23  1  0  0  0  0
 22 24  1  0  0  0  0
 22 25  1  0  0  0  0
 20 26  1  0  0  0  0
 26 27  1  0  0  0  0
 26 28  1  0  0  0  0
 26 29  1  0  0  0  0
M  END
> <VM2 Rank>
190

> <Conf_Id>
1204

> <Probability>
0.00

> <Sum Probability>
100.00

> <Delta G>
6.823

> <G>
40.524

> <E>
2.175

> <-TS>
38.350

> <U+W>
-21.970

> <U>
30.724

> <W>
-52.694

> <W(PB)>
-55.087

> <W(SA)>
2.393

> <Valence>
8.746

> <Coulomb>
21.258

> <VdW>
0.720

> <VdW6>
-11.140

> <VdW12>
11.861

> <Bond>
0.332

> <Angle>
2.430

> <Pdih>
5.984

> <Idih>
0.000

> <Tether>
0.000

$$$$
VeraChem MOL file


 29 28  0  0  0  0  0  0  0  0999 V2000     
   20.6050   17.7304   21.2723 C   0  0  0  0  0  0  0  0  0  0  0  0
   20.3842   17.5629   22.3312 H   0  0  0  0  0  0  0  0  0  0  0  0
   19.9495   17.0742   20.6852 H   0  0  0  0  0  0  0  0  0  0  0  0
   21.6408   17.4152   21.0916 H   0  0  0  0  0  0  0  0  0  0  0  0
   20.4090   19.2090   20.8657 C   0  0  0  0  0  0  0  0  0  0  0  0
   20.6335   19.2947   19.7932 H   0  0  0  0  0  0  0  0  0  0  0  0
   21.1383   19.8530   21.3750 H   0  0  0  0  0  0  0  0  0  0  0  0
   18.9689   19.7255   21.1097 C   0  0  0  0  0  0  0  0  0  0  0  0
   18.7242   20.4282   20.3012 H   0  0  0  0  0  0  0  0  0  0  0  0
   18.2483   18.9023   21.0086 H   0  0  0  0  0  0  0  0  0  0  0  0
   18.7399   20.4725   22.4515 C   0  0  0  0  0  0  0  0  0  0  0  0
   17.7186   20.8773   22.4256 H   0  0  0  0  0  0  0  0  0  0  0  0
   19.3986   21.3497   22.5108 H   0  0  0  0  0  0  0  0  0  0  0  0
   18.8731   19.6108   23.7337 C   0  0  0  0  0  0  0  0  0  0  0  0
   18.1327   19.9721   24.4594 H   0  0  0  0  0  0  0  0  0  0  0  0
   18.5963   18.5726   23.5119 H   0  0  0  0  0  0  0  0  0  0  0  0
   20.2815   19.6952   24.3855 C   0  0  0  0  0  0  0  0  0  0  0  0
   20.5116   20.7470   24.5996 H   0  0  0  0  0  0  0  0  0  0  0  0
   21.0482   19.3635   23.6768 H   0  0  0  0  0  0  0  0  0  0  0  0
   20.4418   18.8904   25.6971 C   0  0  2  0  0  0  0  0  0  0  0  0
   21.4491   19.0864   26.0775 H   0  0  0  0  0  0  0  0  0  0  0  0
   20.3212   17.3742   25.4660 C   0  0  0  0  0  0  0  0  0  0  0  0
   21.0322   17.0389   24.7010 H   0  0  0  0  0  0  0  0  0  0  0  0
   20.5470   16.8268   26.3894 H   0  0  0  0  0  0  0  0  0  0  0  0
   19.3114   17.0902   25.1472 H   0  0  0  0  0  0  0  0  0  0  0  0
   19.4956   19.3480   26.7727 N   0  3  0  0  0  0  0  0  0  0  0  0
   19.6594   18.8494   27.6520 H   0  0  0  0  0  0  0  0  0  0  0  0
   18.5221   19.1851   26.5039 H   0  0  0  0  0  0  0  0  0  0  0  0
   19.6002   20.3486   26.9637 H   0  0  0  0  0  0  0  0  0  0  0  0
  1  2  1  0  0  0  0
  1  3  1  0  0  0  0
  1  4  1  0  0  0  0
  1  5  1  0  0  0  0
  5  6  1  0  0  0  0
  5  7  1  0  0  0  0
  5  8  1  0  0  0  0
  8  9  1  0  0  0  0
  8 10  1  0  0  0  0
  8 11  1  0  0  0  0
 11 12  1  0  0  0  0
 11 13  1  0  0  0  0
 11 14  1  0  0  0  0
 14 15  1  0  0  0  0
 14 16  1  0  0  0  0
 14 17  1  0  0  0  0
 17 18  1  0  0  0  0
 17 19  1  0  0  0  0
 17 20  1  0  0  0  0
 20 21  1  0  0  0  0
 20 22  1  0  0  0  0
 22 23  1  0  0  0  0
 22 24  1  0  0  0  0
 22 25  1  0  0  0  0
 20 26  1  0  0  0  0
 26 27  1  0  0  0  0
 26 28  1  0  0  0  0
 26 29  1  0  0  0  0
M  END
> <VM2 Rank>
191

> <Conf_Id>
125

> <Probability>
0.00

> <Sum Probability>
100.00

> <Delta G>
6.895

> <G>
40.597

> <E>
1.974

> <-TS>
38.623

> <U+W>
-22.171

> <U>
30.488

> <W>
-52.659

> <W(PB)>
-55.024

> <W(SA)>
2.365

> <Valence>
9.346

> <Coulomb>
20.316

> <VdW>
0.826

> <VdW6>
-11.863

> <VdW12>
12.688

> <Bond>
0.377

> <Angle>
2.762

> <Pdih>
6.207

> <Idih>
0.000

> <Tether>
0.000

$$$$
VeraChem MOL file


 29 28  0  0  0  0  0  0  0  0999 V2000     
   19.3347   20.9580   20.1892 C   0  0  0  0  0  0  0  0  0  0  0  0
   19.3668   21.7710   20.9262 H   0  0  0  0  0  0  0  0  0  0  0  0
   20.2994   20.9327   19.6659 H   0  0  0  0  0  0  0  0  0  0  0  0
   18.5582   21.2015   19.4525 H   0  0  0  0  0  0  0  0  0  0  0  0
   19.0364   19.6045   20.8677 C   0  0  0  0  0  0  0  0  0  0  0  0
   18.9764   18.8181   20.1021 H   0  0  0  0  0  0  0  0  0  0  0  0
   18.0510   19.6501   21.3516 H   0  0  0  0  0  0  0  0  0  0  0  0
   20.1178   19.2367   21.9072 C   0  0  0  0  0  0  0  0  0  0  0  0
   21.0956   19.1815   21.4087 H   0  0  0  0  0  0  0  0  0  0  0  0
   20.2033   20.0395   22.6488 H   0  0  0  0  0  0  0  0  0  0  0  0
   19.8225   17.8783   22.5901 C   0  0  0  0  0  0  0  0  0  0  0  0
   19.9160   17.0917   21.8284 H   0  0  0  0  0  0  0  0  0  0  0  0
   18.7834   17.8250   22.9410 H   0  0  0  0  0  0  0  0  0  0  0  0
   20.7980   17.5569   23.7509 C   0  0  0  0  0  0  0  0  0  0  0  0
   21.0085   16.4787   23.7265 H   0  0  0  0  0  0  0  0  0  0  0  0
   21.7662   18.0474   23.5786 H   0  0  0  0  0  0  0  0  0  0  0  0
   20.2806   17.8943   25.1763 C   0  0  0  0  0  0  0  0  0  0  0  0
   21.0418   17.5428   25.8856 H   0  0  0  0  0  0  0  0  0  0  0  0
   19.3778   17.3090   25.3956 H   0  0  0  0  0  0  0  0  0  0  0  0
   20.0087   19.3925   25.4472 C   0  0  2  0  0  0  0  0  0  0  0  0
   20.8007   19.9791   24.9719 H   0  0  0  0  0  0  0  0  0  0  0  0
   20.0370   19.6788   26.9575 C   0  0  0  0  0  0  0  0  0  0  0  0
   19.2687   19.1001   27.4855 H   0  0  0  0  0  0  0  0  0  0  0  0
   21.0138   19.4216   27.3859 H   0  0  0  0  0  0  0  0  0  0  0  0
   19.8594   20.7433   27.1547 H   0  0  0  0  0  0  0  0  0  0  0  0
   18.7002   19.8560   24.8678 N   0  3  0  0  0  0  0  0  0  0  0  0
   18.6641   19.6777   23.8596 H   0  0  0  0  0  0  0  0  0  0  0  0
   18.5600   20.8599   25.0150 H   0  0  0  0  0  0  0  0  0  0  0  0
   17.9101   19.3688   25.2993 H   0  0  0  0  0  0  0  0  0  0  0  0
  1  2  1  0  0  0  0
  1  3  1  0  0  0  0
  1  4  1  0  0  0  0
  1  5  1  0  0  0  0
  5  6  1  0  0  0  0
  5  7  1  0  0  0  0
  5  8  1  0  0  0  0
  8  9  1  0  0  0  0
  8 10  1  0  0  0  0
  8 11  1  0  0  0  0
 11 12  1  0  0  0  0
 11 13  1  0  0  0  0
 11 14  1  0  0  0  0
 14 15  1  0  0  0  0
 14 16  1  0  0  0  0
 14 17  1  0  0  0  0
 17 18  1  0  0  0  0
 17 19  1  0  0  0  0
 17 20  1  0  0  0  0
 20 21  1  0  0  0  0
 20 22  1  0  0  0  0
 22 23  1  0  0  0  0
 22 24  1  0  0  0  0
 22 25  1  0  0  0  0
 20 26  1  0  0  0  0
 26 27  1  0  0  0  0
 26 28  1  0  0  0  0
 26 29  1  0  0  0  0
M  END
> <VM2 Rank>
192

> <Conf_Id>
1310

> <Probability>
0.00

> <Sum Probability>
100.00

> <Delta G>
7.121

> <G>
40.822

> <E>
2.728

> <-TS>
38.094

> <U+W>
-21.416

> <U>
29.728

> <W>
-51.144

> <W(PB)>
-53.597

> <W(SA)>
2.453

> <Valence>
7.448

> <Coulomb>
21.445

> <VdW>
0.835

> <VdW6>
-10.815

> <VdW12>
11.650

> <Bond>
0.282

> <Angle>
2.108

> <Pdih>
5.057

> <Idih>
0.000

> <Tether>
0.000

$$$$
VeraChem MOL file


 29 28  0  0  0  0  0  0  0  0999 V2000     
   21.3299   19.3243   20.8724 C   0  0  0  0  0  0  0  0  0  0  0  0
   21.9977   20.1322   20.5465 H   0  0  0  0  0  0  0  0  0  0  0  0
   21.6482   19.0145   21.8748 H   0  0  0  0  0  0  0  0  0  0  0  0
   21.4752   18.4749   20.1924 H   0  0  0  0  0  0  0  0  0  0  0  0
   19.8585   19.7984   20.8567 C   0  0  0  0  0  0  0  0  0  0  0  0
   19.6173   20.1508   19.8442 H   0  0  0  0  0  0  0  0  0  0  0  0
   19.7312   20.6685   21.5135 H   0  0  0  0  0  0  0  0  0  0  0  0
   18.8546   18.6839   21.2405 C   0  0  0  0  0  0  0  0  0  0  0  0
   17.8340   19.0490   21.0613 H   0  0  0  0  0  0  0  0  0  0  0  0
   18.9909   17.8371   20.5540 H   0  0  0  0  0  0  0  0  0  0  0  0
   18.9522   18.1628   22.6996 C   0  0  0  0  0  0  0  0  0  0  0  0
   19.9485   17.7476   22.8886 H   0  0  0  0  0  0  0  0  0  0  0  0
   18.2612   17.3134   22.7887 H   0  0  0  0  0  0  0  0  0  0  0  0
   18.5613   19.2072   23.7816 C   0  0  0  0  0  0  0  0  0  0  0  0
   17.8346   19.9084   23.3491 H   0  0  0  0  0  0  0  0  0  0  0  0
   18.0195   18.6992   24.5895 H   0  0  0  0  0  0  0  0  0  0  0  0
   19.7490   20.0144   24.3813 C   0  0  0  0  0  0  0  0  0  0  0  0
   19.3898   21.0224   24.6261 H   0  0  0  0  0  0  0  0  0  0  0  0
   20.5306   20.1620   23.6285 H   0  0  0  0  0  0  0  0  0  0  0  0
   20.3900   19.4257   25.6628 C   0  0  2  0  0  0  0  0  0  0  0  0
   21.1991   20.1013   25.9571 H   0  0  0  0  0  0  0  0  0  0  0  0
   21.0085   18.0366   25.4367 C   0  0  0  0  0  0  0  0  0  0  0  0
   21.7185   18.0577   24.6008 H   0  0  0  0  0  0  0  0  0  0  0  0
   21.5566   17.7109   26.3292 H   0  0  0  0  0  0  0  0  0  0  0  0
   20.2400   17.2843   25.2225 H   0  0  0  0  0  0  0  0  0  0  0  0
   19.4320   19.4028   26.8223 N   0  3  0  0  0  0  0  0  0  0  0  0
   19.8888   19.0750   27.6781 H   0  0  0  0  0  0  0  0  0  0  0  0
   18.6412   18.7805   26.6389 H   0  0  0  0  0  0  0  0  0  0  0  0
   19.0532   20.3344   27.0149 H   0  0  0  0  0  0  0  0  0  0  0  0
  1  2  1  0  0  0  0
  1  3  1  0  0  0  0
  1  4  1  0  0  0  0
  1  5  1  0  0  0  0
  5  6  1  0  0  0  0
  5  7  1  0  0  0  0
  5  8  1  0  0  0  0
  8  9  1  0  0  0  0
  8 10  1  0  0  0  0
  8 11  1  0  0  0  0
 11 12  1  0  0  0  0
 11 13  1  0  0  0  0
 11 14  1  0  0  0  0
 14 15  1  0  0  0  0
 14 16  1  0  0  0  0
 14 17  1  0  0  0  0
 17 18  1  0  0  0  0
 17 19  1  0  0  0  0
 17 20  1  0  0  0  0
 20 21  1  0  0  0  0
 20 22  1  0  0  0  0
 22 23  1  0  0  0  0
 22 24  1  0  0  0  0
 22 25  1  0  0  0  0
 20 26  1  0  0  0  0
 26 27  1  0  0  0  0
 26 28  1  0  0  0  0
 26 29  1  0  0  0  0
M  END
> <VM2 Rank>
193

> <Conf_Id>
333

> <Probability>
0.00

> <Sum Probability>
100.00

> <Delta G>
7.275

> <G>
40.977

> <E>
2.258

> <-TS>
38.719

> <U+W>
-21.886

> <U>
30.828

> <W>
-52.714

> <W(PB)>
-55.055

> <W(SA)>
2.341

> <Valence>
9.595

> <Coulomb>
20.313

> <VdW>
0.920

> <VdW6>
-12.305

> <VdW12>
13.225

> <Bond>
0.425

> <Angle>
2.902

> <Pdih>
6.268

> <Idih>
0.000

> <Tether>
0.000

$$$$
VeraChem MOL file


 29 28  0  0  0  0  0  0  0  0999 V2000     
   18.5958   20.1049   20.7663 C   0  0  0  0  0  0  0  0  0  0  0  0
   18.1116   19.1246   20.8568 H   0  0  0  0  0  0  0  0  0  0  0  0
   18.2758   20.7333   21.6070 H   0  0  0  0  0  0  0  0  0  0  0  0
   18.2267   20.5687   19.8424 H   0  0  0  0  0  0  0  0  0  0  0  0
   20.1336   19.9696   20.7236 C   0  0  0  0  0  0  0  0  0  0  0  0
   20.5670   20.9525   20.4914 H   0  0  0  0  0  0  0  0  0  0  0  0
   20.4182   19.3086   19.8931 H   0  0  0  0  0  0  0  0  0  0  0  0
   20.7657   19.4509   22.0402 C   0  0  0  0  0  0  0  0  0  0  0  0
   21.8563   19.4593   21.9069 H   0  0  0  0  0  0  0  0  0  0  0  0
   20.5639   20.1595   22.8501 H   0  0  0  0  0  0  0  0  0  0  0  0
   20.3427   18.0093   22.4339 C   0  0  0  0  0  0  0  0  0  0  0  0
   21.1928   17.5014   22.9098 H   0  0  0  0  0  0  0  0  0  0  0  0
   20.1438   17.4378   21.5168 H   0  0  0  0  0  0  0  0  0  0  0  0
   19.1094   17.9094   23.3732 C   0  0  0  0  0  0  0  0  0  0  0  0
   18.3763   18.6924   23.1482 H   0  0  0  0  0  0  0  0  0  0  0  0
   18.5993   16.9604   23.1578 H   0  0  0  0  0  0  0  0  0  0  0  0
   19.4585   17.9138   24.8857 C   0  0  0  0  0  0  0  0  0  0  0  0
   20.1501   17.0855   25.0897 H   0  0  0  0  0  0  0  0  0  0  0  0
   18.5489   17.6961   25.4611 H   0  0  0  0  0  0  0  0  0  0  0  0
   20.0775   19.2290   25.4048 C   0  0  2  0  0  0  0  0  0  0  0  0
   20.9657   19.4521   24.8069 H   0  0  0  0  0  0  0  0  0  0  0  0
   20.5139   19.0738   26.8701 C   0  0  0  0  0  0  0  0  0  0  0  0
   21.2453   18.2628   26.9750 H   0  0  0  0  0  0  0  0  0  0  0  0
   20.9846   19.9952   27.2346 H   0  0  0  0  0  0  0  0  0  0  0  0
   19.6577   18.8477   27.5179 H   0  0  0  0  0  0  0  0  0  0  0  0
   19.1389   20.3954   25.2561 N   0  3  0  0  0  0  0  0  0  0  0  0
   18.2881   20.2594   25.8088 H   0  0  0  0  0  0  0  0  0  0  0  0
   18.8570   20.5220   24.2804 H   0  0  0  0  0  0  0  0  0  0  0  0
   19.5728   21.2679   25.5712 H   0  0  0  0  0  0  0  0  0  0  0  0
  1  2  1  0  0  0  0
  1  3  1  0  0  0  0
  1  4  1  0  0  0  0
  1  5  1  0  0  0  0
  5  6  1  0  0  0  0
  5  7  1  0  0  0  0
  5  8  1  0  0  0  0
  8  9  1  0  0  0  0
  8 10  1  0  0  0  0
  8 11  1  0  0  0  0
 11 12  1  0  0  0  0
 11 13  1  0  0  0  0
 11 14  1  0  0  0  0
 14 15  1  0  0  0  0
 14 16  1  0  0  0  0
 14 17  1  0  0  0  0
 17 18  1  0  0  0  0
 17 19  1  0  0  0  0
 17 20  1  0  0  0  0
 20 21  1  0  0  0  0
 20 22  1  0  0  0  0
 22 23  1  0  0  0  0
 22 24  1  0  0  0  0
 22 25  1  0  0  0  0
 20 26  1  0  0  0  0
 26 27  1  0  0  0  0
 26 28  1  0  0  0  0
 26 29  1  0  0  0  0
M  END
> <VM2 Rank>
194

> <Conf_Id>
971

> <Probability>
0.00

> <Sum Probability>
100.00

> <Delta G>
7.297

> <G>
40.999

> <E>
2.642

> <-TS>
38.357

> <U+W>
-21.502

> <U>
30.703

> <W>
-52.205

> <W(PB)>
-54.613

> <W(SA)>
2.408

> <Valence>
8.590

> <Coulomb>
21.434

> <VdW>
0.679

> <VdW6>
-11.710

> <VdW12>
12.389

> <Bond>
0.360

> <Angle>
2.440

> <Pdih>
5.790

> <Idih>
0.000

> <Tether>
0.000

$$$$
VeraChem MOL file


 29 28  0  0  0  0  0  0  0  0999 V2000     
   18.2475   19.3822   20.0626 C   0  0  0  0  0  0  0  0  0  0  0  0
   18.4542   20.4141   19.7502 H   0  0  0  0  0  0  0  0  0  0  0  0
   18.0063   18.7999   19.1638 H   0  0  0  0  0  0  0  0  0  0  0  0
   17.3585   19.3912   20.7068 H   0  0  0  0  0  0  0  0  0  0  0  0
   19.4594   18.7720   20.7978 C   0  0  0  0  0  0  0  0  0  0  0  0
   20.3224   18.7437   20.1179 H   0  0  0  0  0  0  0  0  0  0  0  0
   19.2347   17.7308   21.0685 H   0  0  0  0  0  0  0  0  0  0  0  0
   19.8210   19.5744   22.0668 C   0  0  0  0  0  0  0  0  0  0  0  0
   20.0483   20.6127   21.7878 H   0  0  0  0  0  0  0  0  0  0  0  0
   18.9493   19.6122   22.7295 H   0  0  0  0  0  0  0  0  0  0  0  0
   21.0372   18.9639   22.8046 C   0  0  0  0  0  0  0  0  0  0  0  0
   21.9007   19.0043   22.1261 H   0  0  0  0  0  0  0  0  0  0  0  0
   20.8749   17.8979   23.0112 H   0  0  0  0  0  0  0  0  0  0  0  0
   21.4031   19.7180   24.1086 C   0  0  0  0  0  0  0  0  0  0  0  0
   22.4937   19.8521   24.1142 H   0  0  0  0  0  0  0  0  0  0  0  0
   20.9956   20.7375   24.0959 H   0  0  0  0  0  0  0  0  0  0  0  0
   21.0310   18.9921   25.4344 C   0  0  0  0  0  0  0  0  0  0  0  0
   21.5061   19.5494   26.2523 H   0  0  0  0  0  0  0  0  0  0  0  0
   21.4992   17.9992   25.4557 H   0  0  0  0  0  0  0  0  0  0  0  0
   19.5284   18.8637   25.7922 C   0  0  2  0  0  0  0  0  0  0  0  0
   19.4812   18.6808   26.8702 H   0  0  0  0  0  0  0  0  0  0  0  0
   18.8506   17.6552   25.1217 C   0  0  0  0  0  0  0  0  0  0  0  0
   18.7730   17.7669   24.0369 H   0  0  0  0  0  0  0  0  0  0  0  0
   19.4070   16.7330   25.3300 H   0  0  0  0  0  0  0  0  0  0  0  0
   17.8352   17.5220   25.5144 H   0  0  0  0  0  0  0  0  0  0  0  0
   18.7579   20.1347   25.5652 N   0  3  0  0  0  0  0  0  0  0  0  0
   19.1590   20.9130   26.0965 H   0  0  0  0  0  0  0  0  0  0  0  0
   17.7803   20.0371   25.8542 H   0  0  0  0  0  0  0  0  0  0  0  0
   18.7679   20.3980   24.5773 H   0  0  0  0  0  0  0  0  0  0  0  0
  1  2  1  0  0  0  0
  1  3  1  0  0  0  0
  1  4  1  0  0  0  0
  1  5  1  0  0  0  0
  5  6  1  0  0  0  0
  5  7  1  0  0  0  0
  5  8  1  0  0  0  0
  8  9  1  0  0  0  0
  8 10  1  0  0  0  0
  8 11  1  0  0  0  0
 11 12  1  0  0  0  0
 11 13  1  0  0  0  0
 11 14  1  0  0  0  0
 14 15  1  0  0  0  0
 14 16  1  0  0  0  0
 14 17  1  0  0  0  0
 17 18  1  0  0  0  0
 17 19  1  0  0  0  0
 17 20  1  0  0  0  0
 20 21  1  0  0  0  0
 20 22  1  0  0  0  0
 22 23  1  0  0  0  0
 22 24  1  0  0  0  0
 22 25  1  0  0  0  0
 20 26  1  0  0  0  0
 26 27  1  0  0  0  0
 26 28  1  0  0  0  0
 26 29  1  0  0  0  0
M  END
> <VM2 Rank>
195

> <Conf_Id>
110

> <Probability>
0.00

> <Sum Probability>
100.00

> <Delta G>
7.406

> <G>
41.108

> <E>
2.873

> <-TS>
38.235

> <U+W>
-21.271

> <U>
31.279

> <W>
-52.551

> <W(PB)>
-54.968

> <W(SA)>
2.418

> <Valence>
9.217

> <Coulomb>
21.424

> <VdW>
0.639

> <VdW6>
-11.253

> <VdW12>
11.892

> <Bond>
0.349

> <Angle>
3.016

> <Pdih>
5.852

> <Idih>
0.000

> <Tether>
0.000

$$$$
VeraChem MOL file


 29 28  0  0  0  0  0  0  0  0999 V2000     
   18.9153   19.7053   20.2000 C   0  0  0  0  0  0  0  0  0  0  0  0
   18.6372   19.7680   19.1401 H   0  0  0  0  0  0  0  0  0  0  0  0
   17.9961   19.5557   20.7810 H   0  0  0  0  0  0  0  0  0  0  0  0
   19.3542   20.6707   20.4794 H   0  0  0  0  0  0  0  0  0  0  0  0
   19.9137   18.5500   20.4278 C   0  0  0  0  0  0  0  0  0  0  0  0
   20.8565   18.7747   19.9097 H   0  0  0  0  0  0  0  0  0  0  0  0
   19.5147   17.6429   19.9527 H   0  0  0  0  0  0  0  0  0  0  0  0
   20.1995   18.2356   21.9183 C   0  0  0  0  0  0  0  0  0  0  0  0
   19.2771   17.9066   22.4118 H   0  0  0  0  0  0  0  0  0  0  0  0
   20.8712   17.3667   21.9451 H   0  0  0  0  0  0  0  0  0  0  0  0
   20.8772   19.3871   22.7111 C   0  0  0  0  0  0  0  0  0  0  0  0
   21.5058   19.9736   22.0272 H   0  0  0  0  0  0  0  0  0  0  0  0
   21.5766   18.9575   23.4396 H   0  0  0  0  0  0  0  0  0  0  0  0
   19.9075   20.3432   23.4574 C   0  0  0  0  0  0  0  0  0  0  0  0
   20.4982   21.1636   23.8877 H   0  0  0  0  0  0  0  0  0  0  0  0
   19.2284   20.8185   22.7404 H   0  0  0  0  0  0  0  0  0  0  0  0
   19.0594   19.7067   24.5917 C   0  0  0  0  0  0  0  0  0  0  0  0
   18.3624   18.9614   24.1890 H   0  0  0  0  0  0  0  0  0  0  0  0
   18.4223   20.5029   24.9988 H   0  0  0  0  0  0  0  0  0  0  0  0
   19.8992   19.1015   25.7428 C   0  0  2  0  0  0  0  0  0  0  0  0
   20.8989   19.5450   25.7068 H   0  0  0  0  0  0  0  0  0  0  0  0
   20.0303   17.5731   25.6134 C   0  0  0  0  0  0  0  0  0  0  0  0
   19.0495   17.0855   25.6759 H   0  0  0  0  0  0  0  0  0  0  0  0
   20.4890   17.2874   24.6611 H   0  0  0  0  0  0  0  0  0  0  0  0
   20.6604   17.1706   26.4160 H   0  0  0  0  0  0  0  0  0  0  0  0
   19.3339   19.4534   27.0916 N   0  3  0  0  0  0  0  0  0  0  0  0
   19.2803   20.4675   27.2243 H   0  0  0  0  0  0  0  0  0  0  0  0
   19.9119   19.0772   27.8487 H   0  0  0  0  0  0  0  0  0  0  0  0
   18.3899   19.0760   27.2113 H   0  0  0  0  0  0  0  0  0  0  0  0
  1  2  1  0  0  0  0
  1  3  1  0  0  0  0
  1  4  1  0  0  0  0
  1  5  1  0  0  0  0
  5  6  1  0  0  0  0
  5  7  1  0  0  0  0
  5  8  1  0  0  0  0
  8  9  1  0  0  0  0
  8 10  1  0  0  0  0
  8 11  1  0  0  0  0
 11 12  1  0  0  0  0
 11 13  1  0  0  0  0
 11 14  1  0  0  0  0
 14 15  1  0  0  0  0
 14 16  1  0  0  0  0
 14 17  1  0  0  0  0
 17 18  1  0  0  0  0
 17 19  1  0  0  0  0
 17 20  1  0  0  0  0
 20 21  1  0  0  0  0
 20 22  1  0  0  0  0
 22 23  1  0  0  0  0
 22 24  1  0  0  0  0
 22 25  1  0  0  0  0
 20 26  1  0  0  0  0
 26 27  1  0  0  0  0
 26 28  1  0  0  0  0
 26 29  1  0  0  0  0
M  END
> <VM2 Rank>
196

> <Conf_Id>
269

> <Probability>
0.00

> <Sum Probability>
100.00

> <Delta G>
7.422

> <G>
41.124

> <E>
2.909

> <-TS>
38.214

> <U+W>
-21.235

> <U>
31.323

> <W>
-52.558

> <W(PB)>
-54.930

> <W(SA)>
2.371

> <Valence>
10.065

> <Coulomb>
20.200

> <VdW>
1.059

> <VdW6>
-11.694

> <VdW12>
12.753

> <Bond>
0.384

> <Angle>
2.930

> <Pdih>
6.750

> <Idih>
0.000

> <Tether>
0.000

$$$$
VeraChem MOL file


 29 28  0  0  0  0  0  0  0  0999 V2000     
   18.3953   19.7380   20.8124 C   0  0  0  0  0  0  0  0  0  0  0  0
   17.9832   18.9818   21.4898 H   0  0  0  0  0  0  0  0  0  0  0  0
   17.7168   20.6008   20.8165 H   0  0  0  0  0  0  0  0  0  0  0  0
   18.3914   19.3156   19.7991 H   0  0  0  0  0  0  0  0  0  0  0  0
   19.8234   20.1669   21.2216 C   0  0  0  0  0  0  0  0  0  0  0  0
   19.8098   20.7107   22.1756 H   0  0  0  0  0  0  0  0  0  0  0  0
   20.1870   20.8862   20.4745 H   0  0  0  0  0  0  0  0  0  0  0  0
   20.8150   18.9789   21.2895 C   0  0  0  0  0  0  0  0  0  0  0  0
   20.4847   18.1701   20.6232 H   0  0  0  0  0  0  0  0  0  0  0  0
   21.7764   19.3189   20.8803 H   0  0  0  0  0  0  0  0  0  0  0  0
   21.0915   18.4165   22.7096 C   0  0  0  0  0  0  0  0  0  0  0  0
   21.5379   19.1961   23.3389 H   0  0  0  0  0  0  0  0  0  0  0  0
   21.8738   17.6521   22.6041 H   0  0  0  0  0  0  0  0  0  0  0  0
   19.8816   17.7500   23.4197 C   0  0  0  0  0  0  0  0  0  0  0  0
   19.2425   17.2612   22.6724 H   0  0  0  0  0  0  0  0  0  0  0  0
   20.2555   16.9319   24.0492 H   0  0  0  0  0  0  0  0  0  0  0  0
   19.0203   18.6952   24.3041 C   0  0  0  0  0  0  0  0  0  0  0  0
   18.2108   18.1072   24.7564 H   0  0  0  0  0  0  0  0  0  0  0  0
   18.5265   19.4392   23.6710 H   0  0  0  0  0  0  0  0  0  0  0  0
   19.7854   19.4389   25.4249 C   0  0  2  0  0  0  0  0  0  0  0  0
   20.5719   20.0446   24.9660 H   0  0  0  0  0  0  0  0  0  0  0  0
   20.4394   18.4697   26.4255 C   0  0  0  0  0  0  0  0  0  0  0  0
   21.2122   17.8611   25.9416 H   0  0  0  0  0  0  0  0  0  0  0  0
   20.9248   19.0230   27.2389 H   0  0  0  0  0  0  0  0  0  0  0  0
   19.6961   17.7952   26.8683 H   0  0  0  0  0  0  0  0  0  0  0  0
   18.8841   20.4018   26.1467 N   0  3  0  0  0  0  0  0  0  0  0  0
   19.3945   20.9263   26.8629 H   0  0  0  0  0  0  0  0  0  0  0  0
   18.1157   19.9143   26.6153 H   0  0  0  0  0  0  0  0  0  0  0  0
   18.4703   21.0846   25.5054 H   0  0  0  0  0  0  0  0  0  0  0  0
  1  2  1  0  0  0  0
  1  3  1  0  0  0  0
  1  4  1  0  0  0  0
  1  5  1  0  0  0  0
  5  6  1  0  0  0  0
  5  7  1  0  0  0  0
  5  8  1  0  0  0  0
  8  9  1  0  0  0  0
  8 10  1  0  0  0  0
  8 11  1  0  0  0  0
 11 12  1  0  0  0  0
 11 13  1  0  0  0  0
 11 14  1  0  0  0  0
 14 15  1  0  0  0  0
 14 16  1  0  0  0  0
 14 17  1  0  0  0  0
 17 18  1  0  0  0  0
 17 19  1  0  0  0  0
 17 20  1  0  0  0  0
 20 21  1  0  0  0  0
 20 22  1  0  0  0  0
 22 23  1  0  0  0  0
 22 24  1  0  0  0  0
 22 25  1  0  0  0  0
 20 26  1  0  0  0  0
 26 27  1  0  0  0  0
 26 28  1  0  0  0  0
 26 29  1  0  0  0  0
M  END
> <VM2 Rank>
197

> <Conf_Id>
536

> <Probability>
0.00

> <Sum Probability>
100.00

> <Delta G>
7.459

> <G>
41.161

> <E>
2.818

> <-TS>
38.343

> <U+W>
-21.327

> <U>
31.597

> <W>
-52.923

> <W(PB)>
-55.302

> <W(SA)>
2.378

> <Valence>
9.790

> <Coulomb>
20.848

> <VdW>
0.959

> <VdW6>
-11.921

> <VdW12>
12.880

> <Bond>
0.397

> <Angle>
3.179

> <Pdih>
6.214

> <Idih>
0.000

> <Tether>
0.000

$$$$
VeraChem MOL file


 29 28  0  0  0  0  0  0  0  0999 V2000     
   19.8278   19.4228   19.7175 C   0  0  0  0  0  0  0  0  0  0  0  0
   19.6752   18.3428   19.8343 H   0  0  0  0  0  0  0  0  0  0  0  0
   18.8776   19.8749   19.4050 H   0  0  0  0  0  0  0  0  0  0  0  0
   20.5512   19.5659   18.9044 H   0  0  0  0  0  0  0  0  0  0  0  0
   20.3481   20.0667   21.0225 C   0  0  0  0  0  0  0  0  0  0  0  0
   20.6240   21.1093   20.8116 H   0  0  0  0  0  0  0  0  0  0  0  0
   21.2762   19.5699   21.3333 H   0  0  0  0  0  0  0  0  0  0  0  0
   19.3128   20.0602   22.1776 C   0  0  0  0  0  0  0  0  0  0  0  0
   19.7450   20.6053   23.0246 H   0  0  0  0  0  0  0  0  0  0  0  0
   18.4363   20.6419   21.8601 H   0  0  0  0  0  0  0  0  0  0  0  0
   18.8343   18.6528   22.6328 C   0  0  0  0  0  0  0  0  0  0  0  0
   18.4534   18.1104   21.7581 H   0  0  0  0  0  0  0  0  0  0  0  0
   17.9645   18.7479   23.2958 H   0  0  0  0  0  0  0  0  0  0  0  0
   19.9226   17.7860   23.3214 C   0  0  0  0  0  0  0  0  0  0  0  0
   19.7672   16.7438   23.0102 H   0  0  0  0  0  0  0  0  0  0  0  0
   20.9217   18.0501   22.9540 H   0  0  0  0  0  0  0  0  0  0  0  0
   19.9190   17.8074   24.8742 C   0  0  0  0  0  0  0  0  0  0  0  0
   20.6871   17.0960   25.2058 H   0  0  0  0  0  0  0  0  0  0  0  0
   18.9668   17.4140   25.2540 H   0  0  0  0  0  0  0  0  0  0  0  0
   20.2092   19.1841   25.5154 C   0  0  2  0  0  0  0  0  0  0  0  0
   20.9628   19.6961   24.9092 H   0  0  0  0  0  0  0  0  0  0  0  0
   20.7701   19.0093   26.9362 C   0  0  0  0  0  0  0  0  0  0  0  0
   21.7047   18.4348   26.9195 H   0  0  0  0  0  0  0  0  0  0  0  0
   20.9889   19.9836   27.3903 H   0  0  0  0  0  0  0  0  0  0  0  0
   20.0564   18.4829   27.5825 H   0  0  0  0  0  0  0  0  0  0  0  0
   18.9921   20.0667   25.5565 N   0  3  0  0  0  0  0  0  0  0  0  0
   19.2131   20.9928   25.9340 H   0  0  0  0  0  0  0  0  0  0  0  0
   18.2602   19.6617   26.1464 H   0  0  0  0  0  0  0  0  0  0  0  0
   18.6002   20.1947   24.6195 H   0  0  0  0  0  0  0  0  0  0  0  0
  1  2  1  0  0  0  0
  1  3  1  0  0  0  0
  1  4  1  0  0  0  0
  1  5  1  0  0  0  0
  5  6  1  0  0  0  0
  5  7  1  0  0  0  0
  5  8  1  0  0  0  0
  8  9  1  0  0  0  0
  8 10  1  0  0  0  0
  8 11  1  0  0  0  0
 11 12  1  0  0  0  0
 11 13  1  0  0  0  0
 11 14  1  0  0  0  0
 14 15  1  0  0  0  0
 14 16  1  0  0  0  0
 14 17  1  0  0  0  0
 17 18  1  0  0  0  0
 17 19  1  0  0  0  0
 17 20  1  0  0  0  0
 20 21  1  0  0  0  0
 20 22  1  0  0  0  0
 22 23  1  0  0  0  0
 22 24  1  0  0  0  0
 22 25  1  0  0  0  0
 20 26  1  0  0  0  0
 26 27  1  0  0  0  0
 26 28  1  0  0  0  0
 26 29  1  0  0  0  0
M  END
> <VM2 Rank>
198

> <Conf_Id>
659

> <Probability>
0.00

> <Sum Probability>
100.00

> <Delta G>
7.611

> <G>
41.313

> <E>
3.309

> <-TS>
38.004

> <U+W>
-20.836

> <U>
31.440

> <W>
-52.275

> <W(PB)>
-54.676

> <W(SA)>
2.401

> <Valence>
8.770

> <Coulomb>
21.493

> <VdW>
1.176

> <VdW6>
-11.685

> <VdW12>
12.861

> <Bond>
0.397

> <Angle>
2.827

> <Pdih>
5.547

> <Idih>
0.000

> <Tether>
0.000

$$$$
VeraChem MOL file


 29 28  0  0  0  0  0  0  0  0999 V2000     
   19.2340   20.8569   21.4925 C   0  0  0  0  0  0  0  0  0  0  0  0
   19.7076   21.8390   21.3662 H   0  0  0  0  0  0  0  0  0  0  0  0
   18.2600   20.8889   20.9871 H   0  0  0  0  0  0  0  0  0  0  0  0
   19.0519   20.7082   22.5610 H   0  0  0  0  0  0  0  0  0  0  0  0
   20.1261   19.7440   20.8962 C   0  0  0  0  0  0  0  0  0  0  0  0
   21.1339   19.7777   21.3313 H   0  0  0  0  0  0  0  0  0  0  0  0
   20.2564   19.9565   19.8258 H   0  0  0  0  0  0  0  0  0  0  0  0
   19.5204   18.3257   21.0450 C   0  0  0  0  0  0  0  0  0  0  0  0
   18.4232   18.3773   21.0226 H   0  0  0  0  0  0  0  0  0  0  0  0
   19.8034   17.7470   20.1549 H   0  0  0  0  0  0  0  0  0  0  0  0
   19.9913   17.5182   22.2849 C   0  0  0  0  0  0  0  0  0  0  0  0
   21.0830   17.3962   22.2626 H   0  0  0  0  0  0  0  0  0  0  0  0
   19.5832   16.5030   22.1832 H   0  0  0  0  0  0  0  0  0  0  0  0
   19.5394   18.0719   23.6607 C   0  0  0  0  0  0  0  0  0  0  0  0
   18.5854   18.6032   23.5535 H   0  0  0  0  0  0  0  0  0  0  0  0
   19.3356   17.2144   24.3153 H   0  0  0  0  0  0  0  0  0  0  0  0
   20.6116   18.9666   24.3423 C   0  0  0  0  0  0  0  0  0  0  0  0
   20.8993   19.7849   23.6735 H   0  0  0  0  0  0  0  0  0  0  0  0
   21.5246   18.3766   24.4965 H   0  0  0  0  0  0  0  0  0  0  0  0
   20.1853   19.5751   25.6995 C   0  0  2  0  0  0  0  0  0  0  0  0
   21.0181   20.1893   26.0558 H   0  0  0  0  0  0  0  0  0  0  0  0
   19.9188   18.4942   26.7616 C   0  0  0  0  0  0  0  0  0  0  0  0
   19.0298   17.8993   26.5209 H   0  0  0  0  0  0  0  0  0  0  0  0
   20.7751   17.8142   26.8495 H   0  0  0  0  0  0  0  0  0  0  0  0
   19.7573   18.9542   27.7442 H   0  0  0  0  0  0  0  0  0  0  0  0
   19.0091   20.5033   25.5712 N   0  3  0  0  0  0  0  0  0  0  0  0
   19.2000   21.2621   24.9110 H   0  0  0  0  0  0  0  0  0  0  0  0
   18.7740   20.9324   26.4709 H   0  0  0  0  0  0  0  0  0  0  0  0
   18.1783   20.0050   25.2426 H   0  0  0  0  0  0  0  0  0  0  0  0
  1  2  1  0  0  0  0
  1  3  1  0  0  0  0
  1  4  1  0  0  0  0
  1  5  1  0  0  0  0
  5  6  1  0  0  0  0
  5  7  1  0  0  0  0
  5  8  1  0  0  0  0
  8  9  1  0  0  0  0
  8 10  1  0  0  0  0
  8 11  1  0  0  0  0
 11 12  1  0  0  0  0
 11 13  1  0  0  0  0
 11 14  1  0  0  0  0
 14 15  1  0  0  0  0
 14 16  1  0  0  0  0
 14 17  1  0  0  0  0
 17 18  1  0  0  0  0
 17 19  1  0  0  0  0
 17 20  1  0  0  0  0
 20 21  1  0  0  0  0
 20 22  1  0  0  0  0
 22 23  1  0  0  0  0
 22 24  1  0  0  0  0
 22 25  1  0  0  0  0
 20 26  1  0  0  0  0
 26 27  1  0  0  0  0
 26 28  1  0  0  0  0
 26 29  1  0  0  0  0
M  END
> <VM2 Rank>
199

> <Conf_Id>
98

> <Probability>
0.00

> <Sum Probability>
100.00

> <Delta G>
7.685

> <G>
41.387

> <E>
2.824

> <-TS>
38.563

> <U+W>
-21.321

> <U>
31.481

> <W>
-52.802

> <W(PB)>
-55.148

> <W(SA)>
2.346

> <Valence>
9.332

> <Coulomb>
21.339

> <VdW>
0.810

> <VdW6>
-11.777

> <VdW12>
12.587

> <Bond>
0.375

> <Angle>
2.763

> <Pdih>
6.194

> <Idih>
0.000

> <Tether>
0.000

$$$$
VeraChem MOL file


 29 28  0  0  0  0  0  0  0  0999 V2000     
   19.0404   19.6607   19.7813 C   0  0  0  0  0  0  0  0  0  0  0  0
   20.0021   19.5944   19.2561 H   0  0  0  0  0  0  0  0  0  0  0  0
   18.6504   18.6438   19.9144 H   0  0  0  0  0  0  0  0  0  0  0  0
   18.3396   20.2011   19.1319 H   0  0  0  0  0  0  0  0  0  0  0  0
   19.1959   20.3896   21.1349 C   0  0  0  0  0  0  0  0  0  0  0  0
   18.2244   20.4233   21.6470 H   0  0  0  0  0  0  0  0  0  0  0  0
   19.4798   21.4341   20.9446 H   0  0  0  0  0  0  0  0  0  0  0  0
   20.2579   19.7452   22.0578 C   0  0  0  0  0  0  0  0  0  0  0  0
   21.2318   19.7519   21.5488 H   0  0  0  0  0  0  0  0  0  0  0  0
   20.3868   20.3781   22.9438 H   0  0  0  0  0  0  0  0  0  0  0  0
   19.9120   18.2913   22.4721 C   0  0  0  0  0  0  0  0  0  0  0  0
   20.0336   17.6476   21.5904 H   0  0  0  0  0  0  0  0  0  0  0  0
   18.8569   18.1989   22.7616 H   0  0  0  0  0  0  0  0  0  0  0  0
   20.8283   17.7464   23.5974 C   0  0  0  0  0  0  0  0  0  0  0  0
   21.0261   16.6860   23.3879 H   0  0  0  0  0  0  0  0  0  0  0  0
   21.8095   18.2396   23.5587 H   0  0  0  0  0  0  0  0  0  0  0  0
   20.2488   17.8320   25.0363 C   0  0  0  0  0  0  0  0  0  0  0  0
   20.9690   17.3385   25.7026 H   0  0  0  0  0  0  0  0  0  0  0  0
   19.3266   17.2399   25.1046 H   0  0  0  0  0  0  0  0  0  0  0  0
   19.9901   19.2624   25.5641 C   0  0  2  0  0  0  0  0  0  0  0  0
   20.8196   19.9025   25.2486 H   0  0  0  0  0  0  0  0  0  0  0  0
   19.9354   19.2663   27.1005 C   0  0  0  0  0  0  0  0  0  0  0  0
   20.8802   18.9059   27.5262 H   0  0  0  0  0  0  0  0  0  0  0  0
   19.7670   20.2814   27.4808 H   0  0  0  0  0  0  0  0  0  0  0  0
   19.1264   18.6237   27.4703 H   0  0  0  0  0  0  0  0  0  0  0  0
   18.7273   19.8622   25.0096 N   0  3  0  0  0  0  0  0  0  0  0  0
   17.9037   19.3307   25.3047 H   0  0  0  0  0  0  0  0  0  0  0  0
   18.7460   19.8659   23.9852 H   0  0  0  0  0  0  0  0  0  0  0  0
   18.6002   20.8279   25.3266 H   0  0  0  0  0  0  0  0  0  0  0  0
  1  2  1  0  0  0  0
  1  3  1  0  0  0  0
  1  4  1  0  0  0  0
  1  5  1  0  0  0  0
  5  6  1  0  0  0  0
  5  7  1  0  0  0  0
  5  8  1  0  0  0  0
  8  9  1  0  0  0  0
  8 10  1  0  0  0  0
  8 11  1  0  0  0  0
 11 12  1  0  0  0  0
 11 13  1  0  0  0  0
 11 14  1  0  0  0  0
 14 15  1  0  0  0  0
 14 16  1  0  0  0  0
 14 17  1  0  0  0  0
 17 18  1  0  0  0  0
 17 19  1  0  0  0  0
 17 20  1  0  0  0  0
 20 21  1  0  0  0  0
 20 22  1  0  0  0  0
 22 23  1  0  0  0  0
 22 24  1  0  0  0  0
 22 25  1  0  0  0  0
 20 26  1  0  0  0  0
 26 27  1  0  0  0  0
 26 28  1  0  0  0  0
 26 29  1  0  0  0  0
M  END
> <VM2 Rank>
200

> <Conf_Id>
1299

> <Probability>
0.00

> <Sum Probability>
100.00

> <Delta G>
7.701

> <G>
41.403

> <E>
3.131

> <-TS>
38.271

> <U+W>
-21.013

> <U>
30.362

> <W>
-51.375

> <W(PB)>
-53.813

> <W(SA)>
2.438

> <Valence>
7.956

> <Coulomb>
21.427

> <VdW>
0.978

> <VdW6>
-11.470

> <VdW12>
12.449

> <Bond>
0.321

> <Angle>
2.290

> <Pdih>
5.345

> <Idih>
0.000

> <Tether>
0.000

$$$$
VeraChem MOL file


 29 28  0  0  0  0  0  0  0  0999 V2000     
   18.1741   19.3272   20.1252 C   0  0  0  0  0  0  0  0  0  0  0  0
   17.9069   20.0284   19.3240 H   0  0  0  0  0  0  0  0  0  0  0  0
   18.3688   18.3493   19.6658 H   0  0  0  0  0  0  0  0  0  0  0  0
   17.3050   19.2264   20.7884 H   0  0  0  0  0  0  0  0  0  0  0  0
   19.4095   19.8314   20.9006 C   0  0  0  0  0  0  0  0  0  0  0  0
   19.1958   20.8249   21.3187 H   0  0  0  0  0  0  0  0  0  0  0  0
   20.2511   19.9554   20.2047 H   0  0  0  0  0  0  0  0  0  0  0  0
   19.8087   18.8595   22.0324 C   0  0  0  0  0  0  0  0  0  0  0  0
   18.9555   18.7147   22.7039 H   0  0  0  0  0  0  0  0  0  0  0  0
   20.0309   17.8730   21.6022 H   0  0  0  0  0  0  0  0  0  0  0  0
   21.0474   19.3635   22.8124 C   0  0  0  0  0  0  0  0  0  0  0  0
   20.9112   20.4033   23.1377 H   0  0  0  0  0  0  0  0  0  0  0  0
   21.8982   19.3840   22.1170 H   0  0  0  0  0  0  0  0  0  0  0  0
   21.4229   18.4635   24.0189 C   0  0  0  0  0  0  0  0  0  0  0  0
   21.0136   17.4525   23.8927 H   0  0  0  0  0  0  0  0  0  0  0  0
   22.5136   18.3305   24.0044 H   0  0  0  0  0  0  0  0  0  0  0  0
   21.0549   19.0385   25.4176 C   0  0  0  0  0  0  0  0  0  0  0  0
   21.5232   20.0243   25.5370 H   0  0  0  0  0  0  0  0  0  0  0  0
   21.5265   18.4011   26.1772 H   0  0  0  0  0  0  0  0  0  0  0  0
   19.5519   19.1516   25.7740 C   0  0  2  0  0  0  0  0  0  0  0  0
   19.4971   19.4702   26.8196 H   0  0  0  0  0  0  0  0  0  0  0  0
   18.8260   17.7982   25.6769 C   0  0  0  0  0  0  0  0  0  0  0  0
   18.7769   17.4305   24.6463 H   0  0  0  0  0  0  0  0  0  0  0  0
   19.3371   17.0410   26.2844 H   0  0  0  0  0  0  0  0  0  0  0  0
   17.7988   17.8857   26.0515 H   0  0  0  0  0  0  0  0  0  0  0  0
   18.8405   20.2226   24.9959 N   0  3  0  0  0  0  0  0  0  0  0  0
   19.2501   21.1446   25.1725 H   0  0  0  0  0  0  0  0  0  0  0  0
   17.8492   20.2738   25.2480 H   0  0  0  0  0  0  0  0  0  0  0  0
   18.9040   20.0448   23.9902 H   0  0  0  0  0  0  0  0  0  0  0  0
  1  2  1  0  0  0  0
  1  3  1  0  0  0  0
  1  4  1  0  0  0  0
  1  5  1  0  0  0  0
  5  6  1  0  0  0  0
  5  7  1  0  0  0  0
  5  8  1  0  0  0  0
  8  9  1  0  0  0  0
  8 10  1  0  0  0  0
  8 11  1  0  0  0  0
 11 12  1  0  0  0  0
 11 13  1  0  0  0  0
 11 14  1  0  0  0  0
 14 15  1  0  0  0  0
 14 16  1  0  0  0  0
 14 17  1  0  0  0  0
 17 18  1  0  0  0  0
 17 19  1  0  0  0  0
 17 20  1  0  0  0  0
 20 21  1  0  0  0  0
 20 22  1  0  0  0  0
 22 23  1  0  0  0  0
 22 24  1  0  0  0  0
 22 25  1  0  0  0  0
 20 26  1  0  0  0  0
 26 27  1  0  0  0  0
 26 28  1  0  0  0  0
 26 29  1  0  0  0  0
M  END
> <VM2 Rank>
201

> <Conf_Id>
543

> <Probability>
0.00

> <Sum Probability>
100.00

> <Delta G>
7.851

> <G>
41.553

> <E>
3.007

> <-TS>
38.546

> <U+W>
-21.138

> <U>
30.269

> <W>
-51.406

> <W(PB)>
-53.818

> <W(SA)>
2.411

> <Valence>
8.045

> <Coulomb>
21.611

> <VdW>
0.612

> <VdW6>
-11.609

> <VdW12>
12.222

> <Bond>
0.344

> <Angle>
2.670

> <Pdih>
5.031

> <Idih>
0.000

> <Tether>
0.000

$$$$
VeraChem MOL file


 29 28  0  0  0  0  0  0  0  0999 V2000     
   20.5116   20.3251   20.7096 C   0  0  0  0  0  0  0  0  0  0  0  0
   20.1746   21.3030   21.0770 H   0  0  0  0  0  0  0  0  0  0  0  0
   21.3340   19.9859   21.3476 H   0  0  0  0  0  0  0  0  0  0  0  0
   20.9184   20.4712   19.7006 H   0  0  0  0  0  0  0  0  0  0  0  0
   19.3437   19.3125   20.6768 C   0  0  0  0  0  0  0  0  0  0  0  0
   19.6915   18.3429   20.2942 H   0  0  0  0  0  0  0  0  0  0  0  0
   18.6057   19.6766   19.9483 H   0  0  0  0  0  0  0  0  0  0  0  0
   18.6305   19.1297   22.0417 C   0  0  0  0  0  0  0  0  0  0  0  0
   18.6264   20.0758   22.5966 H   0  0  0  0  0  0  0  0  0  0  0  0
   17.5740   18.9087   21.8361 H   0  0  0  0  0  0  0  0  0  0  0  0
   19.1777   17.9678   22.9151 C   0  0  0  0  0  0  0  0  0  0  0  0
   19.1401   17.0416   22.3254 H   0  0  0  0  0  0  0  0  0  0  0  0
   18.4940   17.7936   23.7545 H   0  0  0  0  0  0  0  0  0  0  0  0
   20.6193   18.1409   23.4584 C   0  0  0  0  0  0  0  0  0  0  0  0
   20.8850   17.2472   24.0380 H   0  0  0  0  0  0  0  0  0  0  0  0
   21.3168   18.1364   22.6119 H   0  0  0  0  0  0  0  0  0  0  0  0
   20.8843   19.4100   24.3211 C   0  0  0  0  0  0  0  0  0  0  0  0
   20.7212   20.3123   23.7195 H   0  0  0  0  0  0  0  0  0  0  0  0
   21.9535   19.4220   24.5699 H   0  0  0  0  0  0  0  0  0  0  0  0
   20.0991   19.5416   25.6514 C   0  0  2  0  0  0  0  0  0  0  0  0
   20.5587   20.3627   26.2102 H   0  0  0  0  0  0  0  0  0  0  0  0
   20.2042   18.2794   26.5247 C   0  0  0  0  0  0  0  0  0  0  0  0
   19.6730   17.4315   26.0761 H   0  0  0  0  0  0  0  0  0  0  0  0
   21.2532   17.9924   26.6687 H   0  0  0  0  0  0  0  0  0  0  0  0
   19.7697   18.4608   27.5153 H   0  0  0  0  0  0  0  0  0  0  0  0
   18.6656   19.9489   25.4553 N   0  3  0  0  0  0  0  0  0  0  0  0
   18.1596   19.2554   24.9002 H   0  0  0  0  0  0  0  0  0  0  0  0
   18.5961   20.8466   24.9680 H   0  0  0  0  0  0  0  0  0  0  0  0
   18.1795   20.0476   26.3512 H   0  0  0  0  0  0  0  0  0  0  0  0
  1  2  1  0  0  0  0
  1  3  1  0  0  0  0
  1  4  1  0  0  0  0
  1  5  1  0  0  0  0
  5  6  1  0  0  0  0
  5  7  1  0  0  0  0
  5  8  1  0  0  0  0
  8  9  1  0  0  0  0
  8 10  1  0  0  0  0
  8 11  1  0  0  0  0
 11 12  1  0  0  0  0
 11 13  1  0  0  0  0
 11 14  1  0  0  0  0
 14 15  1  0  0  0  0
 14 16  1  0  0  0  0
 14 17  1  0  0  0  0
 17 18  1  0  0  0  0
 17 19  1  0  0  0  0
 17 20  1  0  0  0  0
 20 21  1  0  0  0  0
 20 22  1  0  0  0  0
 22 23  1  0  0  0  0
 22 24  1  0  0  0  0
 22 25  1  0  0  0  0
 20 26  1  0  0  0  0
 26 27  1  0  0  0  0
 26 28  1  0  0  0  0
 26 29  1  0  0  0  0
M  END
> <VM2 Rank>
202

> <Conf_Id>
307

> <Probability>
0.00

> <Sum Probability>
100.00

> <Delta G>
7.852

> <G>
41.554

> <E>
2.550

> <-TS>
39.004

> <U+W>
-21.594

> <U>
31.128

> <W>
-52.722

> <W(PB)>
-55.073

> <W(SA)>
2.351

> <Valence>
8.643

> <Coulomb>
21.963

> <VdW>
0.522

> <VdW6>
-13.225

> <VdW12>
13.747

> <Bond>
0.450

> <Angle>
3.746

> <Pdih>
4.447

> <Idih>
0.000

> <Tether>
0.000

$$$$
VeraChem MOL file


 29 28  0  0  0  0  0  0  0  0999 V2000     
   19.9540   20.3234   20.0305 C   0  0  0  0  0  0  0  0  0  0  0  0
   18.9984   20.7616   19.7143 H   0  0  0  0  0  0  0  0  0  0  0  0
   20.3364   20.9194   20.8668 H   0  0  0  0  0  0  0  0  0  0  0  0
   20.6599   20.4267   19.1962 H   0  0  0  0  0  0  0  0  0  0  0  0
   19.7780   18.8347   20.4102 C   0  0  0  0  0  0  0  0  0  0  0  0
   20.7524   18.3802   20.6374 H   0  0  0  0  0  0  0  0  0  0  0  0
   19.3954   18.3023   19.5281 H   0  0  0  0  0  0  0  0  0  0  0  0
   18.7926   18.6175   21.5873 C   0  0  0  0  0  0  0  0  0  0  0  0
   18.0712   19.4446   21.6369 H   0  0  0  0  0  0  0  0  0  0  0  0
   18.1970   17.7194   21.3727 H   0  0  0  0  0  0  0  0  0  0  0  0
   19.4631   18.4128   22.9704 C   0  0  0  0  0  0  0  0  0  0  0  0
   20.1010   17.5188   22.9386 H   0  0  0  0  0  0  0  0  0  0  0  0
   18.6638   18.2026   23.6896 H   0  0  0  0  0  0  0  0  0  0  0  0
   20.2935   19.6238   23.4602 C   0  0  0  0  0  0  0  0  0  0  0  0
   21.0733   19.8384   22.7192 H   0  0  0  0  0  0  0  0  0  0  0  0
   19.6578   20.5184   23.4976 H   0  0  0  0  0  0  0  0  0  0  0  0
   21.0121   19.4201   24.8247 C   0  0  0  0  0  0  0  0  0  0  0  0
   21.6016   20.3257   25.0188 H   0  0  0  0  0  0  0  0  0  0  0  0
   21.7497   18.6118   24.7345 H   0  0  0  0  0  0  0  0  0  0  0  0
   20.1254   19.1776   26.0738 C   0  0  2  0  0  0  0  0  0  0  0  0
   20.6892   19.5502   26.9347 H   0  0  0  0  0  0  0  0  0  0  0  0
   19.8737   17.6815   26.3389 C   0  0  0  0  0  0  0  0  0  0  0  0
   19.3324   17.5469   27.2834 H   0  0  0  0  0  0  0  0  0  0  0  0
   19.2855   17.2072   25.5479 H   0  0  0  0  0  0  0  0  0  0  0  0
   20.8232   17.1389   26.4255 H   0  0  0  0  0  0  0  0  0  0  0  0
   18.8436   19.9646   26.0581 N   0  3  0  0  0  0  0  0  0  0  0  0
   19.0245   20.9692   25.9753 H   0  0  0  0  0  0  0  0  0  0  0  0
   18.3030   19.8192   26.9156 H   0  0  0  0  0  0  0  0  0  0  0  0
   18.2544   19.6915   25.2676 H   0  0  0  0  0  0  0  0  0  0  0  0
  1  2  1  0  0  0  0
  1  3  1  0  0  0  0
  1  4  1  0  0  0  0
  1  5  1  0  0  0  0
  5  6  1  0  0  0  0
  5  7  1  0  0  0  0
  5  8  1  0  0  0  0
  8  9  1  0  0  0  0
  8 10  1  0  0  0  0
  8 11  1  0  0  0  0
 11 12  1  0  0  0  0
 11 13  1  0  0  0  0
 11 14  1  0  0  0  0
 14 15  1  0  0  0  0
 14 16  1  0  0  0  0
 14 17  1  0  0  0  0
 17 18  1  0  0  0  0
 17 19  1  0  0  0  0
 17 20  1  0  0  0  0
 20 21  1  0  0  0  0
 20 22  1  0  0  0  0
 22 23  1  0  0  0  0
 22 24  1  0  0  0  0
 22 25  1  0  0  0  0
 20 26  1  0  0  0  0
 26 27  1  0  0  0  0
 26 28  1  0  0  0  0
 26 29  1  0  0  0  0
M  END
> <VM2 Rank>
203

> <Conf_Id>
145

> <Probability>
0.00

> <Sum Probability>
100.00

> <Delta G>
7.859

> <G>
41.560

> <E>
3.396

> <-TS>
38.164

> <U+W>
-20.748

> <U>
31.583

> <W>
-52.331

> <W(PB)>
-54.756

> <W(SA)>
2.425

> <Valence>
9.577

> <Coulomb>
20.656

> <VdW>
1.349

> <VdW6>
-11.328

> <VdW12>
12.677

> <Bond>
0.393

> <Angle>
3.219

> <Pdih>
5.965

> <Idih>
0.000

> <Tether>
0.000

$$$$
VeraChem MOL file


 29 28  0  0  0  0  0  0  0  0999 V2000     
   19.4952   20.9086   21.7853 C   0  0  0  0  0  0  0  0  0  0  0  0
   18.5177   20.6229   22.1847 H   0  0  0  0  0  0  0  0  0  0  0  0
   20.1498   21.2013   22.6151 H   0  0  0  0  0  0  0  0  0  0  0  0
   19.3381   21.7972   21.1604 H   0  0  0  0  0  0  0  0  0  0  0  0
   20.1251   19.7751   20.9471 C   0  0  0  0  0  0  0  0  0  0  0  0
   20.9998   20.1886   20.4258 H   0  0  0  0  0  0  0  0  0  0  0  0
   19.4259   19.4639   20.1587 H   0  0  0  0  0  0  0  0  0  0  0  0
   20.5922   18.5377   21.7574 C   0  0  0  0  0  0  0  0  0  0  0  0
   21.2497   17.9596   21.0935 H   0  0  0  0  0  0  0  0  0  0  0  0
   21.2350   18.8358   22.5929 H   0  0  0  0  0  0  0  0  0  0  0  0
   19.4672   17.5721   22.2208 C   0  0  0  0  0  0  0  0  0  0  0  0
   19.9194   16.5840   22.3838 H   0  0  0  0  0  0  0  0  0  0  0  0
   18.7554   17.4305   21.3962 H   0  0  0  0  0  0  0  0  0  0  0  0
   18.6819   17.9439   23.5079 C   0  0  0  0  0  0  0  0  0  0  0  0
   18.0876   18.8502   23.3608 H   0  0  0  0  0  0  0  0  0  0  0  0
   17.9410   17.1484   23.6675 H   0  0  0  0  0  0  0  0  0  0  0  0
   19.5459   18.0385   24.7951 C   0  0  0  0  0  0  0  0  0  0  0  0
   20.3704   17.3162   24.7302 H   0  0  0  0  0  0  0  0  0  0  0  0
   18.9381   17.7216   25.6531 H   0  0  0  0  0  0  0  0  0  0  0  0
   20.1041   19.4483   25.0931 C   0  0  2  0  0  0  0  0  0  0  0  0
   20.6281   19.8150   24.2082 H   0  0  0  0  0  0  0  0  0  0  0  0
   21.1092   19.3898   26.2540 C   0  0  0  0  0  0  0  0  0  0  0  0
   21.5311   20.3827   26.4530 H   0  0  0  0  0  0  0  0  0  0  0  0
   20.6325   19.0299   27.1744 H   0  0  0  0  0  0  0  0  0  0  0  0
   21.9420   18.7167   26.0147 H   0  0  0  0  0  0  0  0  0  0  0  0
   19.0151   20.4421   25.3933 N   0  3  0  0  0  0  0  0  0  0  0  0
   19.3986   21.3748   25.5713 H   0  0  0  0  0  0  0  0  0  0  0  0
   18.4806   20.1678   26.2220 H   0  0  0  0  0  0  0  0  0  0  0  0
   18.3573   20.5218   24.6137 H   0  0  0  0  0  0  0  0  0  0  0  0
  1  2  1  0  0  0  0
  1  3  1  0  0  0  0
  1  4  1  0  0  0  0
  1  5  1  0  0  0  0
  5  6  1  0  0  0  0
  5  7  1  0  0  0  0
  5  8  1  0  0  0  0
  8  9  1  0  0  0  0
  8 10  1  0  0  0  0
  8 11  1  0  0  0  0
 11 12  1  0  0  0  0
 11 13  1  0  0  0  0
 11 14  1  0  0  0  0
 14 15  1  0  0  0  0
 14 16  1  0  0  0  0
 14 17  1  0  0  0  0
 17 18  1  0  0  0  0
 17 19  1  0  0  0  0
 17 20  1  0  0  0  0
 20 21  1  0  0  0  0
 20 22  1  0  0  0  0
 22 23  1  0  0  0  0
 22 24  1  0  0  0  0
 22 25  1  0  0  0  0
 20 26  1  0  0  0  0
 26 27  1  0  0  0  0
 26 28  1  0  0  0  0
 26 29  1  0  0  0  0
M  END
> <VM2 Rank>
204

> <Conf_Id>
1222

> <Probability>
0.00

> <Sum Probability>
100.00

> <Delta G>
8.131

> <G>
41.833

> <E>
3.219

> <-TS>
38.614

> <U+W>
-20.925

> <U>
31.532

> <W>
-52.457

> <W(PB)>
-54.794

> <W(SA)>
2.337

> <Valence>
9.542

> <Coulomb>
21.808

> <VdW>
0.182

> <VdW6>
-12.225

> <VdW12>
12.407

> <Bond>
0.388

> <Angle>
3.813

> <Pdih>
5.341

> <Idih>
0.000

> <Tether>
0.000

$$$$
VeraChem MOL file


 29 28  0  0  0  0  0  0  0  0999 V2000     
   20.1422   18.1931   19.9109 C   0  0  0  0  0  0  0  0  0  0  0  0
   20.8625   17.3767   19.7709 H   0  0  0  0  0  0  0  0  0  0  0  0
   19.1622   17.8404   19.5638 H   0  0  0  0  0  0  0  0  0  0  0  0
   20.4514   19.0293   19.2703 H   0  0  0  0  0  0  0  0  0  0  0  0
   20.0858   18.6217   21.3925 C   0  0  0  0  0  0  0  0  0  0  0  0
   21.0917   18.9278   21.7044 H   0  0  0  0  0  0  0  0  0  0  0  0
   19.7974   17.7602   22.0094 H   0  0  0  0  0  0  0  0  0  0  0  0
   19.0930   19.7853   21.6111 C   0  0  0  0  0  0  0  0  0  0  0  0
   19.4709   20.6844   21.1053 H   0  0  0  0  0  0  0  0  0  0  0  0
   18.1434   19.5368   21.1173 H   0  0  0  0  0  0  0  0  0  0  0  0
   18.7857   20.1178   23.0947 C   0  0  0  0  0  0  0  0  0  0  0  0
   18.2889   19.2726   23.5792 H   0  0  0  0  0  0  0  0  0  0  0  0
   18.0337   20.9190   23.0886 H   0  0  0  0  0  0  0  0  0  0  0  0
   19.9916   20.6228   23.9330 C   0  0  0  0  0  0  0  0  0  0  0  0
   20.6218   21.2587   23.2963 H   0  0  0  0  0  0  0  0  0  0  0  0
   19.6100   21.2981   24.7104 H   0  0  0  0  0  0  0  0  0  0  0  0
   20.8926   19.5512   24.6198 C   0  0  0  0  0  0  0  0  0  0  0  0
   21.6878   20.0987   25.1424 H   0  0  0  0  0  0  0  0  0  0  0  0
   21.4207   18.9472   23.8753 H   0  0  0  0  0  0  0  0  0  0  0  0
   20.2323   18.6200   25.6712 C   0  0  2  0  0  0  0  0  0  0  0  0
   21.0062   18.3883   26.4096 H   0  0  0  0  0  0  0  0  0  0  0  0
   19.7923   17.2697   25.0757 C   0  0  0  0  0  0  0  0  0  0  0  0
   18.9763   17.3737   24.3550 H   0  0  0  0  0  0  0  0  0  0  0  0
   20.6315   16.7764   24.5700 H   0  0  0  0  0  0  0  0  0  0  0  0
   19.4487   16.5969   25.8710 H   0  0  0  0  0  0  0  0  0  0  0  0
   19.1206   19.2744   26.4450 N   0  3  0  0  0  0  0  0  0  0  0  0
   19.4461   20.1207   26.9208 H   0  0  0  0  0  0  0  0  0  0  0  0
   18.7402   18.6470   27.1593 H   0  0  0  0  0  0  0  0  0  0  0  0
   18.3524   19.5450   25.8260 H   0  0  0  0  0  0  0  0  0  0  0  0
  1  2  1  0  0  0  0
  1  3  1  0  0  0  0
  1  4  1  0  0  0  0
  1  5  1  0  0  0  0
  5  6  1  0  0  0  0
  5  7  1  0  0  0  0
  5  8  1  0  0  0  0
  8  9  1  0  0  0  0
  8 10  1  0  0  0  0
  8 11  1  0  0  0  0
 11 12  1  0  0  0  0
 11 13  1  0  0  0  0
 11 14  1  0  0  0  0
 14 15  1  0  0  0  0
 14 16  1  0  0  0  0
 14 17  1  0  0  0  0
 17 18  1  0  0  0  0
 17 19  1  0  0  0  0
 17 20  1  0  0  0  0
 20 21  1  0  0  0  0
 20 22  1  0  0  0  0
 22 23  1  0  0  0  0
 22 24  1  0  0  0  0
 22 25  1  0  0  0  0
 20 26  1  0  0  0  0
 26 27  1  0  0  0  0
 26 28  1  0  0  0  0
 26 29  1  0  0  0  0
M  END
> <VM2 Rank>
205

> <Conf_Id>
298

> <Probability>
0.00

> <Sum Probability>
100.00

> <Delta G>
8.209

> <G>
41.911

> <E>
3.541

> <-TS>
38.371

> <U+W>
-20.604

> <U>
32.075

> <W>
-52.679

> <W(PB)>
-55.040

> <W(SA)>
2.361

> <Valence>
10.159

> <Coulomb>
20.991

> <VdW>
0.925

> <VdW6>
-11.915

> <VdW12>
12.840

> <Bond>
0.449

> <Angle>
4.181

> <Pdih>
5.529

> <Idih>
0.000

> <Tether>
0.000

$$$$
VeraChem MOL file


 29 28  0  0  0  0  0  0  0  0999 V2000     
   18.4846   20.3851   21.0002 C   0  0  0  0  0  0  0  0  0  0  0  0
   17.6597   20.2784   21.7161 H   0  0  0  0  0  0  0  0  0  0  0  0
   19.1881   21.1321   21.3875 H   0  0  0  0  0  0  0  0  0  0  0  0
   18.0640   20.7848   20.0683 H   0  0  0  0  0  0  0  0  0  0  0  0
   19.1757   19.0276   20.7366 C   0  0  0  0  0  0  0  0  0  0  0  0
   19.9892   19.1593   20.0095 H   0  0  0  0  0  0  0  0  0  0  0  0
   18.4501   18.3497   20.2656 H   0  0  0  0  0  0  0  0  0  0  0  0
   19.7221   18.3570   22.0189 C   0  0  0  0  0  0  0  0  0  0  0  0
   18.9115   18.2577   22.7489 H   0  0  0  0  0  0  0  0  0  0  0  0
   20.0263   17.3304   21.7714 H   0  0  0  0  0  0  0  0  0  0  0  0
   20.9424   19.0965   22.6258 C   0  0  0  0  0  0  0  0  0  0  0  0
   20.7397   20.1648   22.7668 H   0  0  0  0  0  0  0  0  0  0  0  0
   21.7603   19.0507   21.8933 H   0  0  0  0  0  0  0  0  0  0  0  0
   21.4395   18.4698   23.9550 C   0  0  0  0  0  0  0  0  0  0  0  0
   21.1148   17.4241   24.0382 H   0  0  0  0  0  0  0  0  0  0  0  0
   22.5363   18.4226   23.9086 H   0  0  0  0  0  0  0  0  0  0  0  0
   21.0730   19.2660   25.2413 C   0  0  0  0  0  0  0  0  0  0  0  0
   21.4650   20.2880   25.1564 H   0  0  0  0  0  0  0  0  0  0  0  0
   21.6179   18.8166   26.0820 H   0  0  0  0  0  0  0  0  0  0  0  0
   19.5777   19.3356   25.6385 C   0  0  2  0  0  0  0  0  0  0  0  0
   19.5287   19.8462   26.6052 H   0  0  0  0  0  0  0  0  0  0  0  0
   18.9619   17.9391   25.8356 C   0  0  0  0  0  0  0  0  0  0  0  0
   17.9415   18.0214   26.2292 H   0  0  0  0  0  0  0  0  0  0  0  0
   18.9157   17.3731   24.8990 H   0  0  0  0  0  0  0  0  0  0  0  0
   19.5490   17.3564   26.5562 H   0  0  0  0  0  0  0  0  0  0  0  0
   18.7591   20.1794   24.7021 N   0  3  0  0  0  0  0  0  0  0  0  0
   19.0890   21.1490   24.6925 H   0  0  0  0  0  0  0  0  0  0  0  0
   17.7721   20.1932   24.9757 H   0  0  0  0  0  0  0  0  0  0  0  0
   18.8218   19.8223   23.7441 H   0  0  0  0  0  0  0  0  0  0  0  0
  1  2  1  0  0  0  0
  1  3  1  0  0  0  0
  1  4  1  0  0  0  0
  1  5  1  0  0  0  0
  5  6  1  0  0  0  0
  5  7  1  0  0  0  0
  5  8  1  0  0  0  0
  8  9  1  0  0  0  0
  8 10  1  0  0  0  0
  8 11  1  0  0  0  0
 11 12  1  0  0  0  0
 11 13  1  0  0  0  0
 11 14  1  0  0  0  0
 14 15  1  0  0  0  0
 14 16  1  0  0  0  0
 14 17  1  0  0  0  0
 17 18  1  0  0  0  0
 17 19  1  0  0  0  0
 17 20  1  0  0  0  0
 20 21  1  0  0  0  0
 20 22  1  0  0  0  0
 22 23  1  0  0  0  0
 22 24  1  0  0  0  0
 22 25  1  0  0  0  0
 20 26  1  0  0  0  0
 26 27  1  0  0  0  0
 26 28  1  0  0  0  0
 26 29  1  0  0  0  0
M  END
> <VM2 Rank>
206

> <Conf_Id>
340

> <Probability>
0.00

> <Sum Probability>
100.00

> <Delta G>
9.295

> <G>
42.997

> <E>
4.105

> <-TS>
38.892

> <U+W>
-20.040

> <U>
30.903

> <W>
-50.943

> <W(PB)>
-53.280

> <W(SA)>
2.337

> <Valence>
8.630

> <Coulomb>
21.734

> <VdW>
0.539

> <VdW6>
-12.781

> <VdW12>
13.320

> <Bond>
0.379

> <Angle>
2.934

> <Pdih>
5.317

> <Idih>
0.000

> <Tether>
0.000

$$$$
VeraChem MOL file


 29 28  0  0  0  0  0  0  0  0999 V2000     
   18.3501   20.3339   21.1643 C   0  0  0  0  0  0  0  0  0  0  0  0
   18.0458   19.8716   20.2163 H   0  0  0  0  0  0  0  0  0  0  0  0
   17.7455   19.8912   21.9633 H   0  0  0  0  0  0  0  0  0  0  0  0
   18.0985   21.4010   21.1090 H   0  0  0  0  0  0  0  0  0  0  0  0
   19.8663   20.1473   21.4045 C   0  0  0  0  0  0  0  0  0  0  0  0
   20.1697   20.6581   22.3237 H   0  0  0  0  0  0  0  0  0  0  0  0
   20.4068   20.6542   20.5929 H   0  0  0  0  0  0  0  0  0  0  0  0
   20.3062   18.6620   21.4269 C   0  0  0  0  0  0  0  0  0  0  0  0
   19.9494   18.1912   20.5004 H   0  0  0  0  0  0  0  0  0  0  0  0
   21.4022   18.6072   21.3768 H   0  0  0  0  0  0  0  0  0  0  0  0
   19.8020   17.8210   22.6327 C   0  0  0  0  0  0  0  0  0  0  0  0
   19.6613   16.7934   22.2699 H   0  0  0  0  0  0  0  0  0  0  0  0
   18.8070   18.1354   22.9608 H   0  0  0  0  0  0  0  0  0  0  0  0
   20.7915   17.7353   23.8264 C   0  0  0  0  0  0  0  0  0  0  0  0
   20.4558   16.9424   24.5071 H   0  0  0  0  0  0  0  0  0  0  0  0
   21.7574   17.3807   23.4414 H   0  0  0  0  0  0  0  0  0  0  0  0
   21.0474   19.0374   24.6389 C   0  0  0  0  0  0  0  0  0  0  0  0
   21.4186   19.8275   23.9769 H   0  0  0  0  0  0  0  0  0  0  0  0
   21.8814   18.8339   25.3233 H   0  0  0  0  0  0  0  0  0  0  0  0
   19.8795   19.5811   25.5031 C   0  0  2  0  0  0  0  0  0  0  0  0
   20.2926   20.3829   26.1228 H   0  0  0  0  0  0  0  0  0  0  0  0
   19.3096   18.5159   26.4556 C   0  0  0  0  0  0  0  0  0  0  0  0
   18.7730   17.7309   25.9093 H   0  0  0  0  0  0  0  0  0  0  0  0
   20.1107   18.0456   27.0392 H   0  0  0  0  0  0  0  0  0  0  0  0
   18.6060   18.9713   27.1632 H   0  0  0  0  0  0  0  0  0  0  0  0
   18.7834   20.2220   24.7017 N   0  3  0  0  0  0  0  0  0  0  0  0
   19.1382   20.9971   24.1349 H   0  0  0  0  0  0  0  0  0  0  0  0
   18.0471   20.5948   25.3085 H   0  0  0  0  0  0  0  0  0  0  0  0
   18.3537   19.5457   24.0673 H   0  0  0  0  0  0  0  0  0  0  0  0
  1  2  1  0  0  0  0
  1  3  1  0  0  0  0
  1  4  1  0  0  0  0
  1  5  1  0  0  0  0
  5  6  1  0  0  0  0
  5  7  1  0  0  0  0
  5  8  1  0  0  0  0
  8  9  1  0  0  0  0
  8 10  1  0  0  0  0
  8 11  1  0  0  0  0
 11 12  1  0  0  0  0
 11 13  1  0  0  0  0
 11 14  1  0  0  0  0
 14 15  1  0  0  0  0
 14 16  1  0  0  0  0
 14 17  1  0  0  0  0
 17 18  1  0  0  0  0
 17 19  1  0  0  0  0
 17 20  1  0  0  0  0
 20 21  1  0  0  0  0
 20 22  1  0  0  0  0
 22 23  1  0  0  0  0
 22 24  1  0  0  0  0
 22 25  1  0  0  0  0
 20 26  1  0  0  0  0
 26 27  1  0  0  0  0
 26 28  1  0  0  0  0
 26 29  1  0  0  0  0
M  END
> <VM2 Rank>
207

> <Conf_Id>
339

> <Probability>
0.00

> <Sum Probability>
100.00

> <Delta G>
9.867

> <G>
43.569

> <E>
4.974

> <-TS>
38.595

> <U+W>
-19.171

> <U>
32.384

> <W>
-51.554

> <W(PB)>
-53.873

> <W(SA)>
2.319

> <Valence>
9.558

> <Coulomb>
22.443

> <VdW>
0.382

> <VdW6>
-13.100

> <VdW12>
13.482

> <Bond>
0.478

> <Angle>
4.244

> <Pdih>
4.836

> <Idih>
0.000

> <Tether>
0.000

$$$$
