@<TRIPOS>MOLECULE
guest-s15_vm2.mol2 : vm2 ligand conformer 1
          29          28           1
SMALL
USER_CHARGES
 
@<TRIPOS>ATOM
       1    C1      19.530524   19.931332   18.743971 C.3        1 MOL1        -0.2426
       2    H1      18.590509   20.492488   18.826001 H          1 MOL1         0.0959
       3    H2      20.358443   20.652031   18.724012 H          1 MOL1         0.0959
       4    H3      19.523085   19.399797   17.783519 H          1 MOL1         0.0959
       5    C2      19.687698   18.938456   19.915017 C.3        1 MOL1        -0.1410
       6    H4      20.619002   18.368941   19.787626 H          1 MOL1         0.0948
       7    H5      18.864690   18.210533   19.888804 H          1 MOL1         0.0948
       8    C3      19.701117   19.661522   21.279914 C.3        1 MOL1        -0.1435
       9    H6      20.523870   20.389581   21.300526 H          1 MOL1         0.0948
      10    H7      18.769395   20.231161   21.401583 H          1 MOL1         0.0948
      11    C4      19.858457   18.670429   22.455087 C.3        1 MOL1        -0.1435
      12    H8      20.789859   18.100648   22.331378 H          1 MOL1         0.0948
      13    H9      19.035257   17.942834   22.433883 H          1 MOL1         0.0948
      14    C5      19.872461   19.394254   23.820392 C.3        1 MOL1        -0.1435
      15    H10     20.698141   20.119157   23.842055 H          1 MOL1         0.0948
      16    H11     18.941869   19.966130   23.933653 H          1 MOL1         0.0948
      17    C6      20.028937   18.399080   24.995771 C.3        1 MOL1        -0.1500
      18    H12     20.935520   17.800334   24.835410 H          1 MOL1         0.0948
      19    H13     19.185647   17.695641   25.001804 H          1 MOL1         0.0948
      20    C7      20.131366   19.098952   26.368231 C.3        1 MOL1         0.1162
      21    H14     20.961855   19.810586   26.329271 H          1 MOL1         0.0910
      22    C8      20.427987   18.070857   27.471560 C.3        1 MOL1        -0.2491
      23    H15     20.538224   18.565995   28.444235 H          1 MOL1         0.0959
      24    H16     19.620724   17.332219   27.553352 H          1 MOL1         0.0959
      25    H17     21.362201   17.534398   27.263670 H          1 MOL1         0.0959
      26    N1      18.897454   19.891119   26.704058 N.4        1 MOL1        -0.5987
      27    H18     18.990835   20.363849   27.607651 H          1 MOL1         0.3605
      28    H19     18.070969   19.289682   26.756462 H          1 MOL1         0.3605
      29    H20     18.711947   20.610347   25.999797 H          1 MOL1         0.3605
@<TRIPOS>BOND
    1     1     2    1
    2     1     3    1
    3     1     4    1
    4     1     5    1
    5     5     6    1
    6     5     7    1
    7     5     8    1
    8     8     9    1
    9     8    10    1
   10     8    11    1
   11    11    12    1
   12    11    13    1
   13    11    14    1
   14    14    15    1
   15    14    16    1
   16    14    17    1
   17    17    18    1
   18    17    19    1
   19    17    20    1
   20    20    21    1
   21    20    22    1
   22    22    23    1
   23    22    24    1
   24    22    25    1
   25    20    26    1
   26    26    27    1
   27    26    28    1
   28    26    29    1
@<TRIPOS>SUBSTRUCTURE
       1 MOL1            1 RESIDUE      1      MOL     
@<SCITEGIC>MOL_PROPERTY
VM2 Rank
SciTegic.value.IntegerValue
1

@<SCITEGIC>MOL_PROPERTY
Conf_Id
SciTegic.value.IntegerValue
402

@<SCITEGIC>MOL_PROPERTY
Probability
SciTegic.value.DoubleValue
10.66

@<SCITEGIC>MOL_PROPERTY
Sum Probability
SciTegic.value.DoubleValue
10.66

@<SCITEGIC>MOL_PROPERTY
Delta G
SciTegic.value.DoubleValue
0.000

@<SCITEGIC>MOL_PROPERTY
G
SciTegic.value.DoubleValue
33.702

@<SCITEGIC>MOL_PROPERTY
E
SciTegic.value.DoubleValue
-3.682

@<SCITEGIC>MOL_PROPERTY
-TS
SciTegic.value.DoubleValue
37.384

@<SCITEGIC>MOL_PROPERTY
U+W
SciTegic.value.DoubleValue
-27.827

@<SCITEGIC>MOL_PROPERTY
U
SciTegic.value.DoubleValue
23.963

@<SCITEGIC>MOL_PROPERTY
W
SciTegic.value.DoubleValue
-51.788

@<SCITEGIC>MOL_PROPERTY
W(PB)
SciTegic.value.DoubleValue
-54.342

@<SCITEGIC>MOL_PROPERTY
W(SA)
SciTegic.value.DoubleValue
2.554

@<SCITEGIC>MOL_PROPERTY
Valence
SciTegic.value.DoubleValue
3.166

@<SCITEGIC>MOL_PROPERTY
Coulomb
SciTegic.value.DoubleValue
19.734

@<SCITEGIC>MOL_PROPERTY
VdW
SciTegic.value.DoubleValue
1.063

@<SCITEGIC>MOL_PROPERTY
VdW6
SciTegic.value.DoubleValue
-7.938

@<SCITEGIC>MOL_PROPERTY
VdW12
SciTegic.value.DoubleValue
9.001

@<SCITEGIC>MOL_PROPERTY
Bond
SciTegic.value.DoubleValue
0.188

@<SCITEGIC>MOL_PROPERTY
Angle
SciTegic.value.DoubleValue
0.880

@<SCITEGIC>MOL_PROPERTY
Pdih
SciTegic.value.DoubleValue
2.098

@<SCITEGIC>MOL_PROPERTY
Idih
SciTegic.value.DoubleValue
0.000

@<SCITEGIC>MOL_PROPERTY
Tether
SciTegic.value.DoubleValue
0.000

@<TRIPOS>MOLECULE
guest-s15_vm2.mol2 : vm2 ligand conformer 2
          29          28           1
SMALL
USER_CHARGES
 
@<TRIPOS>ATOM
       1    C1      19.030750   19.352304   18.849829 C.3        1 MOL1        -0.2426
       2    H1      18.500179   18.391464   18.826770 H          1 MOL1         0.0959
       3    H2      18.285885   20.151859   18.955370 H          1 MOL1         0.0959
       4    H3      19.531814   19.483994   17.882026 H          1 MOL1         0.0959
       5    C2      20.054945   19.392686   20.003627 C.3        1 MOL1        -0.1410
       6    H4      20.592781   20.350855   19.980366 H          1 MOL1         0.0948
       7    H5      20.805369   18.604015   19.852773 H          1 MOL1         0.0948
       8    C3      19.375080   19.209531   21.378456 C.3        1 MOL1        -0.1435
       9    H6      18.624464   19.998744   21.523746 H          1 MOL1         0.0948
      10    H7      18.836849   18.251722   21.396004 H          1 MOL1         0.0948
      11    C4      20.397696   19.249182   22.536393 C.3        1 MOL1        -0.1435
      12    H8      20.935626   20.207158   22.517350 H          1 MOL1         0.0948
      13    H9      21.148105   18.459972   22.389786 H          1 MOL1         0.0948
      14    C5      19.717313   19.065669   23.911758 C.3        1 MOL1        -0.1435
      15    H10     18.968030   19.856063   24.051152 H          1 MOL1         0.0948
      16    H11     19.178989   18.108809   23.919103 H          1 MOL1         0.0948
      17    C6      20.749012   19.103082   25.069154 C.3        1 MOL1        -0.1500
      18    H12     21.313158   20.043652   25.018860 H          1 MOL1         0.0948
      19    H13     21.485341   18.301338   24.924921 H          1 MOL1         0.0948
      20    C7      20.143360   18.972232   26.486628 C.3        1 MOL1         0.1162
      21    H14     20.969327   19.044692   27.200984 H          1 MOL1         0.0910
      22    C8      19.461222   17.609885   26.701210 C.3        1 MOL1        -0.2491
      23    H15     19.163283   17.491459   27.750216 H          1 MOL1         0.0959
      24    H16     18.561114   17.504990   26.083951 H          1 MOL1         0.0959
      25    H17     20.145251   16.788240   26.455073 H          1 MOL1         0.0959
      26    N1      19.206621   20.101428   26.816945 N.4        1 MOL1        -0.5987
      27    H18     18.863272   20.033262   27.779303 H          1 MOL1         0.3605
      28    H19     18.391278   20.099981   26.199082 H          1 MOL1         0.3605
      29    H20     19.666445   21.011265   26.719572 H          1 MOL1         0.3605
@<TRIPOS>BOND
    1     1     2    1
    2     1     3    1
    3     1     4    1
    4     1     5    1
    5     5     6    1
    6     5     7    1
    7     5     8    1
    8     8     9    1
    9     8    10    1
   10     8    11    1
   11    11    12    1
   12    11    13    1
   13    11    14    1
   14    14    15    1
   15    14    16    1
   16    14    17    1
   17    17    18    1
   18    17    19    1
   19    17    20    1
   20    20    21    1
   21    20    22    1
   22    22    23    1
   23    22    24    1
   24    22    25    1
   25    20    26    1
   26    26    27    1
   27    26    28    1
   28    26    29    1
@<TRIPOS>SUBSTRUCTURE
       1 MOL1            1 RESIDUE      1      MOL     
@<SCITEGIC>MOL_PROPERTY
VM2 Rank
SciTegic.value.IntegerValue
2

@<SCITEGIC>MOL_PROPERTY
Conf_Id
SciTegic.value.IntegerValue
399

@<SCITEGIC>MOL_PROPERTY
Probability
SciTegic.value.DoubleValue
5.23

@<SCITEGIC>MOL_PROPERTY
Sum Probability
SciTegic.value.DoubleValue
15.89

@<SCITEGIC>MOL_PROPERTY
Delta G
SciTegic.value.DoubleValue
0.425

@<SCITEGIC>MOL_PROPERTY
G
SciTegic.value.DoubleValue
34.127

@<SCITEGIC>MOL_PROPERTY
E
SciTegic.value.DoubleValue
-3.403

@<SCITEGIC>MOL_PROPERTY
-TS
SciTegic.value.DoubleValue
37.530

@<SCITEGIC>MOL_PROPERTY
U+W
SciTegic.value.DoubleValue
-27.548

@<SCITEGIC>MOL_PROPERTY
U
SciTegic.value.DoubleValue
24.513

@<SCITEGIC>MOL_PROPERTY
W
SciTegic.value.DoubleValue
-52.061

@<SCITEGIC>MOL_PROPERTY
W(PB)
SciTegic.value.DoubleValue
-54.558

@<SCITEGIC>MOL_PROPERTY
W(SA)
SciTegic.value.DoubleValue
2.497

@<SCITEGIC>MOL_PROPERTY
Valence
SciTegic.value.DoubleValue
3.678

@<SCITEGIC>MOL_PROPERTY
Coulomb
SciTegic.value.DoubleValue
19.662

@<SCITEGIC>MOL_PROPERTY
VdW
SciTegic.value.DoubleValue
1.174

@<SCITEGIC>MOL_PROPERTY
VdW6
SciTegic.value.DoubleValue
-8.569

@<SCITEGIC>MOL_PROPERTY
VdW12
SciTegic.value.DoubleValue
9.743

@<SCITEGIC>MOL_PROPERTY
Bond
SciTegic.value.DoubleValue
0.224

@<SCITEGIC>MOL_PROPERTY
Angle
SciTegic.value.DoubleValue
1.211

@<SCITEGIC>MOL_PROPERTY
Pdih
SciTegic.value.DoubleValue
2.243

@<SCITEGIC>MOL_PROPERTY
Idih
SciTegic.value.DoubleValue
0.000

@<SCITEGIC>MOL_PROPERTY
Tether
SciTegic.value.DoubleValue
0.000

@<TRIPOS>MOLECULE
guest-s15_vm2.mol2 : vm2 ligand conformer 3
          29          28           1
SMALL
USER_CHARGES
 
@<TRIPOS>ATOM
       1    C1      20.203069   19.467356   18.690427 C.3        1 MOL1        -0.2426
       2    H1      20.598480   20.491420   18.704454 H          1 MOL1         0.0959
       3    H2      21.052468   18.773381   18.643790 H          1 MOL1         0.0959
       4    H3      19.616859   19.344932   17.770415 H          1 MOL1         0.0959
       5    C2      19.330228   19.192832   19.933263 C.3        1 MOL1        -0.1410
       6    H4      18.922132   18.174065   19.874357 H          1 MOL1         0.0948
       7    H5      18.471590   19.878862   19.934500 H          1 MOL1         0.0948
       8    C3      20.132032   19.358509   21.243071 C.3        1 MOL1        -0.1435
       9    H6      20.990449   18.672594   21.236051 H          1 MOL1         0.0948
      10    H7      20.539751   20.377494   21.296442 H          1 MOL1         0.0948
      11    C4      19.261267   19.084322   22.489944 C.3        1 MOL1        -0.1435
      12    H8      18.854156   18.065078   22.436047 H          1 MOL1         0.0948
      13    H9      18.402642   19.770032   22.494731 H          1 MOL1         0.0948
      14    C5      20.063805   19.250710   23.800215 C.3        1 MOL1        -0.1435
      15    H10     20.923341   18.567949   23.781340 H          1 MOL1         0.0948
      16    H11     20.466539   20.271579   23.856290 H          1 MOL1         0.0948
      17    C6      19.190221   18.970837   25.047753 C.3        1 MOL1        -0.1500
      18    H12     18.839184   17.930486   25.028354 H          1 MOL1         0.0948
      19    H13     18.293735   19.602733   24.995313 H          1 MOL1         0.0948
      20    C7      19.908585   19.252367   26.387207 C.3        1 MOL1         0.1162
      21    H14     20.285048   20.279713   26.365539 H          1 MOL1         0.0910
      22    C8      21.097244   18.302424   26.619543 C.3        1 MOL1        -0.2491
      23    H15     20.778952   17.252998   26.586204 H          1 MOL1         0.0959
      24    H16     21.878711   18.449159   25.865125 H          1 MOL1         0.0959
      25    H17     21.554233   18.488160   27.599350 H          1 MOL1         0.0959
      26    N1      18.949549   19.176643   27.542577 N.4        1 MOL1        -0.5987
      27    H18     19.412328   19.401266   28.428080 H          1 MOL1         0.3605
      28    H19     18.549880   18.238933   27.636093 H          1 MOL1         0.3605
      29    H20     18.171508   19.833176   27.430624 H          1 MOL1         0.3605
@<TRIPOS>BOND
    1     1     2    1
    2     1     3    1
    3     1     4    1
    4     1     5    1
    5     5     6    1
    6     5     7    1
    7     5     8    1
    8     8     9    1
    9     8    10    1
   10     8    11    1
   11    11    12    1
   12    11    13    1
   13    11    14    1
   14    14    15    1
   15    14    16    1
   16    14    17    1
   17    17    18    1
   18    17    19    1
   19    17    20    1
   20    20    21    1
   21    20    22    1
   22    22    23    1
   23    22    24    1
   24    22    25    1
   25    20    26    1
   26    26    27    1
   27    26    28    1
   28    26    29    1
@<TRIPOS>SUBSTRUCTURE
       1 MOL1            1 RESIDUE      1      MOL     
@<SCITEGIC>MOL_PROPERTY
VM2 Rank
SciTegic.value.IntegerValue
3

@<SCITEGIC>MOL_PROPERTY
Conf_Id
SciTegic.value.IntegerValue
58

@<SCITEGIC>MOL_PROPERTY
Probability
SciTegic.value.DoubleValue
5.21

@<SCITEGIC>MOL_PROPERTY
Sum Probability
SciTegic.value.DoubleValue
21.10

@<SCITEGIC>MOL_PROPERTY
Delta G
SciTegic.value.DoubleValue
0.427

@<SCITEGIC>MOL_PROPERTY
G
SciTegic.value.DoubleValue
34.129

@<SCITEGIC>MOL_PROPERTY
E
SciTegic.value.DoubleValue
-3.270

@<SCITEGIC>MOL_PROPERTY
-TS
SciTegic.value.DoubleValue
37.399

@<SCITEGIC>MOL_PROPERTY
U+W
SciTegic.value.DoubleValue
-27.414

@<SCITEGIC>MOL_PROPERTY
U
SciTegic.value.DoubleValue
24.279

@<SCITEGIC>MOL_PROPERTY
W
SciTegic.value.DoubleValue
-51.694

@<SCITEGIC>MOL_PROPERTY
W(PB)
SciTegic.value.DoubleValue
-54.271

@<SCITEGIC>MOL_PROPERTY
W(SA)
SciTegic.value.DoubleValue
2.577

@<SCITEGIC>MOL_PROPERTY
Valence
SciTegic.value.DoubleValue
3.709

@<SCITEGIC>MOL_PROPERTY
Coulomb
SciTegic.value.DoubleValue
19.380

@<SCITEGIC>MOL_PROPERTY
VdW
SciTegic.value.DoubleValue
1.191

@<SCITEGIC>MOL_PROPERTY
VdW6
SciTegic.value.DoubleValue
-8.093

@<SCITEGIC>MOL_PROPERTY
VdW12
SciTegic.value.DoubleValue
9.284

@<SCITEGIC>MOL_PROPERTY
Bond
SciTegic.value.DoubleValue
0.200

@<SCITEGIC>MOL_PROPERTY
Angle
SciTegic.value.DoubleValue
1.161

@<SCITEGIC>MOL_PROPERTY
Pdih
SciTegic.value.DoubleValue
2.348

@<SCITEGIC>MOL_PROPERTY
Idih
SciTegic.value.DoubleValue
0.000

@<SCITEGIC>MOL_PROPERTY
Tether
SciTegic.value.DoubleValue
0.000

@<TRIPOS>MOLECULE
guest-s15_vm2.mol2 : vm2 ligand conformer 4
          29          28           1
SMALL
USER_CHARGES
 
@<TRIPOS>ATOM
       1    C1      18.828853   18.794177   19.403750 C.3        1 MOL1        -0.2426
       2    H1      18.683239   17.874084   19.983135 H          1 MOL1         0.0959
       3    H2      17.943905   19.429659   19.538134 H          1 MOL1         0.0959
       4    H3      18.881765   18.511844   18.344304 H          1 MOL1         0.0959
       5    C2      20.115677   19.536150   19.830456 C.3        1 MOL1        -0.1410
       6    H4      20.282371   20.378647   19.144763 H          1 MOL1         0.0948
       7    H5      20.981983   18.869843   19.715234 H          1 MOL1         0.0948
       8    C3      20.061402   20.078351   21.279070 C.3        1 MOL1        -0.1435
       9    H6      20.961494   20.682275   21.459096 H          1 MOL1         0.0948
      10    H7      19.205825   20.759719   21.383703 H          1 MOL1         0.0948
      11    C4      19.976948   18.965504   22.351026 C.3        1 MOL1        -0.1435
      12    H8      20.804653   18.256974   22.209351 H          1 MOL1         0.0948
      13    H9      19.045478   18.397592   22.227479 H          1 MOL1         0.0948
      14    C5      20.030667   19.543812   23.783166 C.3        1 MOL1        -0.1435
      15    H10     20.965601   20.105666   23.916854 H          1 MOL1         0.0948
      16    H11     19.206830   20.258152   23.913082 H          1 MOL1         0.0948
      17    C6      19.940744   18.430615   24.855139 C.3        1 MOL1        -0.1500
      18    H12     20.738786   17.698253   24.673829 H          1 MOL1         0.0948
      19    H13     18.990160   17.890620   24.751248 H          1 MOL1         0.0948
      20    C7      20.077515   18.969021   26.295735 C.3        1 MOL1         0.1162
      21    H14     21.019096   19.522162   26.367236 H          1 MOL1         0.0910
      22    C8      20.123774   17.805541   27.298966 C.3        1 MOL1        -0.2491
      23    H15     19.197736   17.217785   27.268257 H          1 MOL1         0.0959
      24    H16     20.962480   17.133520   27.078236 H          1 MOL1         0.0959
      25    H17     20.257584   18.179598   28.321505 H          1 MOL1         0.0959
      26    N1      18.980421   19.932828   26.656693 N.4        1 MOL1        -0.5987
      27    H18     18.060954   19.485670   26.610120 H          1 MOL1         0.3605
      28    H19     18.965575   20.736415   26.022881 H          1 MOL1         0.3605
      29    H20     19.098070   20.294517   27.607486 H          1 MOL1         0.3605
@<TRIPOS>BOND
    1     1     2    1
    2     1     3    1
    3     1     4    1
    4     1     5    1
    5     5     6    1
    6     5     7    1
    7     5     8    1
    8     8     9    1
    9     8    10    1
   10     8    11    1
   11    11    12    1
   12    11    13    1
   13    11    14    1
   14    14    15    1
   15    14    16    1
   16    14    17    1
   17    17    18    1
   18    17    19    1
   19    17    20    1
   20    20    21    1
   21    20    22    1
   22    22    23    1
   23    22    24    1
   24    22    25    1
   25    20    26    1
   26    26    27    1
   27    26    28    1
   28    26    29    1
@<TRIPOS>SUBSTRUCTURE
       1 MOL1            1 RESIDUE      1      MOL     
@<SCITEGIC>MOL_PROPERTY
VM2 Rank
SciTegic.value.IntegerValue
4

@<SCITEGIC>MOL_PROPERTY
Conf_Id
SciTegic.value.IntegerValue
1220

@<SCITEGIC>MOL_PROPERTY
Probability
SciTegic.value.DoubleValue
4.02

@<SCITEGIC>MOL_PROPERTY
Sum Probability
SciTegic.value.DoubleValue
25.12

@<SCITEGIC>MOL_PROPERTY
Delta G
SciTegic.value.DoubleValue
0.582

@<SCITEGIC>MOL_PROPERTY
G
SciTegic.value.DoubleValue
34.284

@<SCITEGIC>MOL_PROPERTY
E
SciTegic.value.DoubleValue
-3.211

@<SCITEGIC>MOL_PROPERTY
-TS
SciTegic.value.DoubleValue
37.495

@<SCITEGIC>MOL_PROPERTY
U+W
SciTegic.value.DoubleValue
-27.356

@<SCITEGIC>MOL_PROPERTY
U
SciTegic.value.DoubleValue
24.589

@<SCITEGIC>MOL_PROPERTY
W
SciTegic.value.DoubleValue
-51.945

@<SCITEGIC>MOL_PROPERTY
W(PB)
SciTegic.value.DoubleValue
-54.480

@<SCITEGIC>MOL_PROPERTY
W(SA)
SciTegic.value.DoubleValue
2.535

@<SCITEGIC>MOL_PROPERTY
Valence
SciTegic.value.DoubleValue
3.670

@<SCITEGIC>MOL_PROPERTY
Coulomb
SciTegic.value.DoubleValue
19.723

@<SCITEGIC>MOL_PROPERTY
VdW
SciTegic.value.DoubleValue
1.196

@<SCITEGIC>MOL_PROPERTY
VdW6
SciTegic.value.DoubleValue
-8.561

@<SCITEGIC>MOL_PROPERTY
VdW12
SciTegic.value.DoubleValue
9.756

@<SCITEGIC>MOL_PROPERTY
Bond
SciTegic.value.DoubleValue
0.223

@<SCITEGIC>MOL_PROPERTY
Angle
SciTegic.value.DoubleValue
1.119

@<SCITEGIC>MOL_PROPERTY
Pdih
SciTegic.value.DoubleValue
2.329

@<SCITEGIC>MOL_PROPERTY
Idih
SciTegic.value.DoubleValue
0.000

@<SCITEGIC>MOL_PROPERTY
Tether
SciTegic.value.DoubleValue
0.000

@<TRIPOS>MOLECULE
guest-s15_vm2.mol2 : vm2 ligand conformer 5
          29          28           1
SMALL
USER_CHARGES
 
@<TRIPOS>ATOM
       1    C1      20.486166   18.898080   19.301247 C.3        1 MOL1        -0.2426
       2    H1      20.354903   18.591187   18.255531 H          1 MOL1         0.0959
       3    H2      21.278133   19.657626   19.331409 H          1 MOL1         0.0959
       4    H3      20.829774   18.019895   19.861763 H          1 MOL1         0.0959
       5    C2      19.161661   19.453439   19.872027 C.3        1 MOL1        -0.1410
       6    H4      18.394741   18.666424   19.858985 H          1 MOL1         0.0948
       7    H5      18.796541   20.249645   19.208320 H          1 MOL1         0.0948
       8    C3      19.300518   20.025269   21.303510 C.3        1 MOL1        -0.1435
       9    H6      20.053880   20.825061   21.307457 H          1 MOL1         0.0948
      10    H7      18.348302   20.496039   21.584462 H          1 MOL1         0.0948
      11    C4      19.667672   18.956991   22.361179 C.3        1 MOL1        -0.1435
      12    H8      20.651139   18.526628   22.131076 H          1 MOL1         0.0948
      13    H9      18.940748   18.134178   22.318996 H          1 MOL1         0.0948
      14    C5      19.694814   19.549011   23.788469 C.3        1 MOL1        -0.1435
      15    H10     20.422177   20.371791   23.829358 H          1 MOL1         0.0948
      16    H11     18.711262   19.979886   24.018212 H          1 MOL1         0.0948
      17    C6      20.064479   18.480549   24.845910 C.3        1 MOL1        -0.1500
      18    H12     21.024173   18.024156   24.568799 H          1 MOL1         0.0948
      19    H13     19.319169   17.674076   24.835407 H          1 MOL1         0.0948
      20    C7      20.182773   19.060088   26.272115 C.3        1 MOL1         0.1162
      21    H14     20.911998   19.875844   26.251479 H          1 MOL1         0.0910
      22    C8      20.689411   17.984227   27.245840 C.3        1 MOL1        -0.2491
      23    H15     19.989807   17.141006   27.304832 H          1 MOL1         0.0959
      24    H16     21.664912   17.597118   26.925990 H          1 MOL1         0.0959
      25    H17     20.810626   18.399113   28.254099 H          1 MOL1         0.0959
      26    N1      18.888506   19.648346   26.763702 N.4        1 MOL1        -0.5987
      27    H18     18.990544   20.045211   27.702185 H          1 MOL1         0.3605
      28    H19     18.150437   18.940677   26.808424 H          1 MOL1         0.3605
      29    H20     18.561048   20.397704   26.148137 H          1 MOL1         0.3605
@<TRIPOS>BOND
    1     1     2    1
    2     1     3    1
    3     1     4    1
    4     1     5    1
    5     5     6    1
    6     5     7    1
    7     5     8    1
    8     8     9    1
    9     8    10    1
   10     8    11    1
   11    11    12    1
   12    11    13    1
   13    11    14    1
   14    14    15    1
   15    14    16    1
   16    14    17    1
   17    17    18    1
   18    17    19    1
   19    17    20    1
   20    20    21    1
   21    20    22    1
   22    22    23    1
   23    22    24    1
   24    22    25    1
   25    20    26    1
   26    26    27    1
   27    26    28    1
   28    26    29    1
@<TRIPOS>SUBSTRUCTURE
       1 MOL1            1 RESIDUE      1      MOL     
@<SCITEGIC>MOL_PROPERTY
VM2 Rank
SciTegic.value.IntegerValue
5

@<SCITEGIC>MOL_PROPERTY
Conf_Id
SciTegic.value.IntegerValue
1039

@<SCITEGIC>MOL_PROPERTY
Probability
SciTegic.value.DoubleValue
3.90

@<SCITEGIC>MOL_PROPERTY
Sum Probability
SciTegic.value.DoubleValue
29.02

@<SCITEGIC>MOL_PROPERTY
Delta G
SciTegic.value.DoubleValue
0.600

@<SCITEGIC>MOL_PROPERTY
G
SciTegic.value.DoubleValue
34.302

@<SCITEGIC>MOL_PROPERTY
E
SciTegic.value.DoubleValue
-3.193

@<SCITEGIC>MOL_PROPERTY
-TS
SciTegic.value.DoubleValue
37.495

@<SCITEGIC>MOL_PROPERTY
U+W
SciTegic.value.DoubleValue
-27.338

@<SCITEGIC>MOL_PROPERTY
U
SciTegic.value.DoubleValue
24.574

@<SCITEGIC>MOL_PROPERTY
W
SciTegic.value.DoubleValue
-51.911

@<SCITEGIC>MOL_PROPERTY
W(PB)
SciTegic.value.DoubleValue
-54.448

@<SCITEGIC>MOL_PROPERTY
W(SA)
SciTegic.value.DoubleValue
2.537

@<SCITEGIC>MOL_PROPERTY
Valence
SciTegic.value.DoubleValue
3.669

@<SCITEGIC>MOL_PROPERTY
Coulomb
SciTegic.value.DoubleValue
19.705

@<SCITEGIC>MOL_PROPERTY
VdW
SciTegic.value.DoubleValue
1.200

@<SCITEGIC>MOL_PROPERTY
VdW6
SciTegic.value.DoubleValue
-8.560

@<SCITEGIC>MOL_PROPERTY
VdW12
SciTegic.value.DoubleValue
9.760

@<SCITEGIC>MOL_PROPERTY
Bond
SciTegic.value.DoubleValue
0.223

@<SCITEGIC>MOL_PROPERTY
Angle
SciTegic.value.DoubleValue
1.118

@<SCITEGIC>MOL_PROPERTY
Pdih
SciTegic.value.DoubleValue
2.328

@<SCITEGIC>MOL_PROPERTY
Idih
SciTegic.value.DoubleValue
0.000

@<SCITEGIC>MOL_PROPERTY
Tether
SciTegic.value.DoubleValue
0.000

@<TRIPOS>MOLECULE
guest-s15_vm2.mol2 : vm2 ligand conformer 6
          29          28           1
SMALL
USER_CHARGES
 
@<TRIPOS>ATOM
       1    C1      20.674615   18.986436   19.135417 C.3        1 MOL1        -0.2426
       2    H1      21.326763   19.869400   19.153435 H          1 MOL1         0.0959
       3    H2      21.274384   18.112354   19.420895 H          1 MOL1         0.0959
       4    H3      20.335060   18.839205   18.101942 H          1 MOL1         0.0959
       5    C2      19.470623   19.166887   20.083996 C.3        1 MOL1        -0.1410
       6    H4      18.820117   18.283353   20.019841 H          1 MOL1         0.0948
       7    H5      18.871559   20.026591   19.752477 H          1 MOL1         0.0948
       8    C3      19.921191   19.377101   21.546519 C.3        1 MOL1        -0.1435
       9    H6      20.526149   18.516673   21.860392 H          1 MOL1         0.0948
      10    H7      20.568844   20.262663   21.605795 H          1 MOL1         0.0948
      11    C4      18.714029   19.553367   22.498989 C.3        1 MOL1        -0.1435
      12    H8      18.095906   18.645031   22.486686 H          1 MOL1         0.0948
      13    H9      18.077006   20.364408   22.119758 H          1 MOL1         0.0948
      14    C5      19.115004   19.888651   23.956759 C.3        1 MOL1        -0.1435
      15    H10     19.730672   20.798758   23.968165 H          1 MOL1         0.0948
      16    H11     18.199406   20.127910   24.513288 H          1 MOL1         0.0948
      17    C6      19.869872   18.738215   24.671462 C.3        1 MOL1        -0.1500
      18    H12     20.796814   18.519300   24.127313 H          1 MOL1         0.0948
      19    H13     19.264445   17.822546   24.643626 H          1 MOL1         0.0948
      20    C7      20.234156   19.074810   26.133934 C.3        1 MOL1         0.1162
      21    H14     20.804793   20.008616   26.139106 H          1 MOL1         0.0910
      22    C8      21.115616   17.967382   26.733328 C.3        1 MOL1        -0.2491
      23    H15     20.587436   17.005791   26.751388 H          1 MOL1         0.0959
      24    H16     22.035208   17.841181   26.148362 H          1 MOL1         0.0959
      25    H17     21.407139   18.216691   27.761079 H          1 MOL1         0.0959
      26    N1      19.020893   19.303152   26.993596 N.4        1 MOL1        -0.5987
      27    H18     19.282845   19.541954   27.954325 H          1 MOL1         0.3605
      28    H19     18.430778   18.467946   27.035159 H          1 MOL1         0.3605
      29    H20     18.446155   20.069718   26.633551 H          1 MOL1         0.3605
@<TRIPOS>BOND
    1     1     2    1
    2     1     3    1
    3     1     4    1
    4     1     5    1
    5     5     6    1
    6     5     7    1
    7     5     8    1
    8     8     9    1
    9     8    10    1
   10     8    11    1
   11    11    12    1
   12    11    13    1
   13    11    14    1
   14    14    15    1
   15    14    16    1
   16    14    17    1
   17    17    18    1
   18    17    19    1
   19    17    20    1
   20    20    21    1
   21    20    22    1
   22    22    23    1
   23    22    24    1
   24    22    25    1
   25    20    26    1
   26    26    27    1
   27    26    28    1
   28    26    29    1
@<TRIPOS>SUBSTRUCTURE
       1 MOL1            1 RESIDUE      1      MOL     
@<SCITEGIC>MOL_PROPERTY
VM2 Rank
SciTegic.value.IntegerValue
6

@<SCITEGIC>MOL_PROPERTY
Conf_Id
SciTegic.value.IntegerValue
1238

@<SCITEGIC>MOL_PROPERTY
Probability
SciTegic.value.DoubleValue
3.58

@<SCITEGIC>MOL_PROPERTY
Sum Probability
SciTegic.value.DoubleValue
32.60

@<SCITEGIC>MOL_PROPERTY
Delta G
SciTegic.value.DoubleValue
0.651

@<SCITEGIC>MOL_PROPERTY
G
SciTegic.value.DoubleValue
34.353

@<SCITEGIC>MOL_PROPERTY
E
SciTegic.value.DoubleValue
-3.103

@<SCITEGIC>MOL_PROPERTY
-TS
SciTegic.value.DoubleValue
37.455

@<SCITEGIC>MOL_PROPERTY
U+W
SciTegic.value.DoubleValue
-27.247

@<SCITEGIC>MOL_PROPERTY
U
SciTegic.value.DoubleValue
24.710

@<SCITEGIC>MOL_PROPERTY
W
SciTegic.value.DoubleValue
-51.958

@<SCITEGIC>MOL_PROPERTY
W(PB)
SciTegic.value.DoubleValue
-54.513

@<SCITEGIC>MOL_PROPERTY
W(SA)
SciTegic.value.DoubleValue
2.555

@<SCITEGIC>MOL_PROPERTY
Valence
SciTegic.value.DoubleValue
3.735

@<SCITEGIC>MOL_PROPERTY
Coulomb
SciTegic.value.DoubleValue
19.760

@<SCITEGIC>MOL_PROPERTY
VdW
SciTegic.value.DoubleValue
1.216

@<SCITEGIC>MOL_PROPERTY
VdW6
SciTegic.value.DoubleValue
-8.624

@<SCITEGIC>MOL_PROPERTY
VdW12
SciTegic.value.DoubleValue
9.840

@<SCITEGIC>MOL_PROPERTY
Bond
SciTegic.value.DoubleValue
0.236

@<SCITEGIC>MOL_PROPERTY
Angle
SciTegic.value.DoubleValue
1.168

@<SCITEGIC>MOL_PROPERTY
Pdih
SciTegic.value.DoubleValue
2.330

@<SCITEGIC>MOL_PROPERTY
Idih
SciTegic.value.DoubleValue
0.000

@<SCITEGIC>MOL_PROPERTY
Tether
SciTegic.value.DoubleValue
0.000

@<TRIPOS>MOLECULE
guest-s15_vm2.mol2 : vm2 ligand conformer 7
          29          28           1
SMALL
USER_CHARGES
 
@<TRIPOS>ATOM
       1    C1      19.704453   20.025571   19.021338 C.3        1 MOL1        -0.2426
       2    H1      20.461026   20.391807   18.315281 H          1 MOL1         0.0959
       3    H2      19.242427   19.129964   18.585823 H          1 MOL1         0.0959
       4    H3      18.930143   20.797999   19.116450 H          1 MOL1         0.0959
       5    C2      20.343935   19.709888   20.389998 C.3        1 MOL1        -0.1410
       6    H4      20.826578   20.615141   20.784280 H          1 MOL1         0.0948
       7    H5      21.136361   18.959890   20.257859 H          1 MOL1         0.0948
       8    C3      19.299481   19.191955   21.403328 C.3        1 MOL1        -0.1435
       9    H6      18.508488   19.943964   21.530542 H          1 MOL1         0.0948
      10    H7      18.818056   18.288862   21.003248 H          1 MOL1         0.0948
      11    C4      19.936324   18.874246   22.774903 C.3        1 MOL1        -0.1435
      12    H8      20.422268   19.778969   23.163575 H          1 MOL1         0.0948
      13    H9      20.724331   18.119324   22.646252 H          1 MOL1         0.0948
      14    C5      18.887169   18.357636   23.788362 C.3        1 MOL1        -0.1435
      15    H10     18.109044   19.117812   23.938833 H          1 MOL1         0.0948
      16    H11     18.377405   17.482352   23.362480 H          1 MOL1         0.0948
      17    C6      19.503289   17.951383   25.151620 C.3        1 MOL1        -0.1500
      18    H12     20.203750   17.121381   24.989063 H          1 MOL1         0.0948
      19    H13     18.708995   17.559284   25.800645 H          1 MOL1         0.0948
      20    C7      20.240684   19.096484   25.881372 C.3        1 MOL1         0.1162
      21    H14     21.040774   19.461536   25.230743 H          1 MOL1         0.0910
      22    C8      20.878577   18.579556   27.180455 C.3        1 MOL1        -0.2491
      23    H15     20.116637   18.204930   27.875454 H          1 MOL1         0.0959
      24    H16     21.581305   17.763339   26.971382 H          1 MOL1         0.0959
      25    H17     21.436798   19.378702   27.683589 H          1 MOL1         0.0959
      26    N1      19.342088   20.269282   26.162623 N.4        1 MOL1        -0.5987
      27    H18     18.940884   20.644684   25.298885 H          1 MOL1         0.3605
      28    H19     19.851011   21.029747   26.622285 H          1 MOL1         0.3605
      29    H20     18.565599   20.005188   26.774840 H          1 MOL1         0.3605
@<TRIPOS>BOND
    1     1     2    1
    2     1     3    1
    3     1     4    1
    4     1     5    1
    5     5     6    1
    6     5     7    1
    7     5     8    1
    8     8     9    1
    9     8    10    1
   10     8    11    1
   11    11    12    1
   12    11    13    1
   13    11    14    1
   14    14    15    1
   15    14    16    1
   16    14    17    1
   17    17    18    1
   18    17    19    1
   19    17    20    1
   20    20    21    1
   21    20    22    1
   22    22    23    1
   23    22    24    1
   24    22    25    1
   25    20    26    1
   26    26    27    1
   27    26    28    1
   28    26    29    1
@<TRIPOS>SUBSTRUCTURE
       1 MOL1            1 RESIDUE      1      MOL     
@<SCITEGIC>MOL_PROPERTY
VM2 Rank
SciTegic.value.IntegerValue
7

@<SCITEGIC>MOL_PROPERTY
Conf_Id
SciTegic.value.IntegerValue
933

@<SCITEGIC>MOL_PROPERTY
Probability
SciTegic.value.DoubleValue
3.51

@<SCITEGIC>MOL_PROPERTY
Sum Probability
SciTegic.value.DoubleValue
36.11

@<SCITEGIC>MOL_PROPERTY
Delta G
SciTegic.value.DoubleValue
0.662

@<SCITEGIC>MOL_PROPERTY
G
SciTegic.value.DoubleValue
34.364

@<SCITEGIC>MOL_PROPERTY
E
SciTegic.value.DoubleValue
-3.215

@<SCITEGIC>MOL_PROPERTY
-TS
SciTegic.value.DoubleValue
37.579

@<SCITEGIC>MOL_PROPERTY
U+W
SciTegic.value.DoubleValue
-27.360

@<SCITEGIC>MOL_PROPERTY
U
SciTegic.value.DoubleValue
24.672

@<SCITEGIC>MOL_PROPERTY
W
SciTegic.value.DoubleValue
-52.032

@<SCITEGIC>MOL_PROPERTY
W(PB)
SciTegic.value.DoubleValue
-54.582

@<SCITEGIC>MOL_PROPERTY
W(SA)
SciTegic.value.DoubleValue
2.550

@<SCITEGIC>MOL_PROPERTY
Valence
SciTegic.value.DoubleValue
3.465

@<SCITEGIC>MOL_PROPERTY
Coulomb
SciTegic.value.DoubleValue
20.280

@<SCITEGIC>MOL_PROPERTY
VdW
SciTegic.value.DoubleValue
0.927

@<SCITEGIC>MOL_PROPERTY
VdW6
SciTegic.value.DoubleValue
-8.843

@<SCITEGIC>MOL_PROPERTY
VdW12
SciTegic.value.DoubleValue
9.770

@<SCITEGIC>MOL_PROPERTY
Bond
SciTegic.value.DoubleValue
0.217

@<SCITEGIC>MOL_PROPERTY
Angle
SciTegic.value.DoubleValue
1.094

@<SCITEGIC>MOL_PROPERTY
Pdih
SciTegic.value.DoubleValue
2.153

@<SCITEGIC>MOL_PROPERTY
Idih
SciTegic.value.DoubleValue
0.000

@<SCITEGIC>MOL_PROPERTY
Tether
SciTegic.value.DoubleValue
0.000

@<TRIPOS>MOLECULE
guest-s15_vm2.mol2 : vm2 ligand conformer 8
          29          28           1
SMALL
USER_CHARGES
 
@<TRIPOS>ATOM
       1    C1      18.621449   18.917047   19.291994 C.3        1 MOL1        -0.2426
       2    H1      18.166548   17.971064   19.613580 H          1 MOL1         0.0959
       3    H2      17.874753   19.713150   19.409942 H          1 MOL1         0.0959
       4    H3      18.857097   18.831558   18.223253 H          1 MOL1         0.0959
       5    C2      19.894744   19.225818   20.107664 C.3        1 MOL1        -0.1410
       6    H4      20.345446   20.158384   19.740159 H          1 MOL1         0.0948
       7    H5      20.634712   18.429858   19.943974 H          1 MOL1         0.0948
       8    C3      19.590541   19.352143   21.616821 C.3        1 MOL1        -0.1435
       9    H6      18.852103   20.150079   21.775528 H          1 MOL1         0.0948
      10    H7      19.132921   18.418389   21.968804 H          1 MOL1         0.0948
      11    C4      20.867374   19.657639   22.436148 C.3        1 MOL1        -0.1435
      12    H8      21.352671   20.552297   22.022085 H          1 MOL1         0.0948
      13    H9      21.587178   18.835494   22.321047 H          1 MOL1         0.0948
      14    C5      20.592890   19.900608   23.940459 C.3        1 MOL1        -0.1435
      15    H10     21.531404   20.213201   24.419084 H          1 MOL1         0.0948
      16    H11     19.894270   20.741044   24.048103 H          1 MOL1         0.0948
      17    C6      20.043793   18.651627   24.676216 C.3        1 MOL1        -0.1500
      18    H12     20.700407   17.797188   24.464804 H          1 MOL1         0.0948
      19    H13     19.050839   18.390000   24.289305 H          1 MOL1         0.0948
      20    C7      19.958382   18.847540   26.205168 C.3        1 MOL1         0.1162
      21    H14     20.952015   19.123159   26.571725 H          1 MOL1         0.0910
      22    C8      19.537568   17.537342   26.889683 C.3        1 MOL1        -0.2491
      23    H15     18.542101   17.217437   26.557052 H          1 MOL1         0.0959
      24    H16     20.248502   16.733121   26.662612 H          1 MOL1         0.0959
      25    H17     19.510895   17.659825   27.979493 H          1 MOL1         0.0959
      26    N1      19.029259   19.966236   26.589847 N.4        1 MOL1        -0.5987
      27    H18     18.072414   19.780278   26.277859 H          1 MOL1         0.3605
      28    H19     19.322526   20.854538   26.174346 H          1 MOL1         0.3605
      29    H20     19.001320   20.096986   27.605118 H          1 MOL1         0.3605
@<TRIPOS>BOND
    1     1     2    1
    2     1     3    1
    3     1     4    1
    4     1     5    1
    5     5     6    1
    6     5     7    1
    7     5     8    1
    8     8     9    1
    9     8    10    1
   10     8    11    1
   11    11    12    1
   12    11    13    1
   13    11    14    1
   14    14    15    1
   15    14    16    1
   16    14    17    1
   17    17    18    1
   18    17    19    1
   19    17    20    1
   20    20    21    1
   21    20    22    1
   22    22    23    1
   23    22    24    1
   24    22    25    1
   25    20    26    1
   26    26    27    1
   27    26    28    1
   28    26    29    1
@<TRIPOS>SUBSTRUCTURE
       1 MOL1            1 RESIDUE      1      MOL     
@<SCITEGIC>MOL_PROPERTY
VM2 Rank
SciTegic.value.IntegerValue
8

@<SCITEGIC>MOL_PROPERTY
Conf_Id
SciTegic.value.IntegerValue
1224

@<SCITEGIC>MOL_PROPERTY
Probability
SciTegic.value.DoubleValue
3.51

@<SCITEGIC>MOL_PROPERTY
Sum Probability
SciTegic.value.DoubleValue
39.62

@<SCITEGIC>MOL_PROPERTY
Delta G
SciTegic.value.DoubleValue
0.663

@<SCITEGIC>MOL_PROPERTY
G
SciTegic.value.DoubleValue
34.365

@<SCITEGIC>MOL_PROPERTY
E
SciTegic.value.DoubleValue
-3.138

@<SCITEGIC>MOL_PROPERTY
-TS
SciTegic.value.DoubleValue
37.502

@<SCITEGIC>MOL_PROPERTY
U+W
SciTegic.value.DoubleValue
-27.282

@<SCITEGIC>MOL_PROPERTY
U
SciTegic.value.DoubleValue
24.741

@<SCITEGIC>MOL_PROPERTY
W
SciTegic.value.DoubleValue
-52.023

@<SCITEGIC>MOL_PROPERTY
W(PB)
SciTegic.value.DoubleValue
-54.548

@<SCITEGIC>MOL_PROPERTY
W(SA)
SciTegic.value.DoubleValue
2.525

@<SCITEGIC>MOL_PROPERTY
Valence
SciTegic.value.DoubleValue
3.693

@<SCITEGIC>MOL_PROPERTY
Coulomb
SciTegic.value.DoubleValue
19.919

@<SCITEGIC>MOL_PROPERTY
VdW
SciTegic.value.DoubleValue
1.129

@<SCITEGIC>MOL_PROPERTY
VdW6
SciTegic.value.DoubleValue
-8.666

@<SCITEGIC>MOL_PROPERTY
VdW12
SciTegic.value.DoubleValue
9.795

@<SCITEGIC>MOL_PROPERTY
Bond
SciTegic.value.DoubleValue
0.229

@<SCITEGIC>MOL_PROPERTY
Angle
SciTegic.value.DoubleValue
1.104

@<SCITEGIC>MOL_PROPERTY
Pdih
SciTegic.value.DoubleValue
2.360

@<SCITEGIC>MOL_PROPERTY
Idih
SciTegic.value.DoubleValue
0.000

@<SCITEGIC>MOL_PROPERTY
Tether
SciTegic.value.DoubleValue
0.000

@<TRIPOS>MOLECULE
guest-s15_vm2.mol2 : vm2 ligand conformer 9
          29          28           1
SMALL
USER_CHARGES
 
@<TRIPOS>ATOM
       1    C1      19.169602   20.266030   19.241684 C.3        1 MOL1        -0.2426
       2    H1      18.220860   20.749088   18.974135 H          1 MOL1         0.0959
       3    H2      19.958175   21.029035   19.206625 H          1 MOL1         0.0959
       4    H3      19.390396   19.510509   18.476391 H          1 MOL1         0.0959
       5    C2      19.079175   19.626603   20.643456 C.3        1 MOL1        -0.1410
       6    H4      18.263977   18.889730   20.655657 H          1 MOL1         0.0948
       7    H5      18.817221   20.404407   21.372774 H          1 MOL1         0.0948
       8    C3      20.407629   18.942848   21.044437 C.3        1 MOL1        -0.1435
       9    H6      20.691549   18.228126   20.259658 H          1 MOL1         0.0948
      10    H7      21.211615   19.690614   21.085392 H          1 MOL1         0.0948
      11    C4      20.333676   18.185469   22.393004 C.3        1 MOL1        -0.1435
      12    H8      21.274602   17.635748   22.533635 H          1 MOL1         0.0948
      13    H9      19.538457   17.428652   22.346429 H          1 MOL1         0.0948
      14    C5      20.103265   19.111487   23.611464 C.3        1 MOL1        -0.1435
      15    H10     20.871078   19.897476   23.624434 H          1 MOL1         0.0948
      16    H11     19.132190   19.612286   23.513864 H          1 MOL1         0.0948
      17    C6      20.148958   18.324483   24.943859 C.3        1 MOL1        -0.1500
      18    H12     21.105518   17.788739   25.007368 H          1 MOL1         0.0948
      19    H13     19.360494   17.560101   24.950771 H          1 MOL1         0.0948
      20    C7      20.004459   19.231365   26.185179 C.3        1 MOL1         0.1162
      21    H14     20.783857   19.998400   26.142202 H          1 MOL1         0.0910
      22    C8      20.203226   18.412856   27.470812 C.3        1 MOL1        -0.2491
      23    H15     19.442401   17.627637   27.563138 H          1 MOL1         0.0959
      24    H16     21.190635   17.934629   27.479831 H          1 MOL1         0.0959
      25    H17     20.138062   19.057836   28.355776 H          1 MOL1         0.0959
      26    N1      18.686010   19.954858   26.220105 N.4        1 MOL1        -0.5987
      27    H18     17.901516   19.298583   26.258030 H          1 MOL1         0.3605
      28    H19     18.559105   20.540815   25.390562 H          1 MOL1         0.3605
      29    H20     18.615818   20.564711   27.039766 H          1 MOL1         0.3605
@<TRIPOS>BOND
    1     1     2    1
    2     1     3    1
    3     1     4    1
    4     1     5    1
    5     5     6    1
    6     5     7    1
    7     5     8    1
    8     8     9    1
    9     8    10    1
   10     8    11    1
   11    11    12    1
   12    11    13    1
   13    11    14    1
   14    14    15    1
   15    14    16    1
   16    14    17    1
   17    17    18    1
   18    17    19    1
   19    17    20    1
   20    20    21    1
   21    20    22    1
   22    22    23    1
   23    22    24    1
   24    22    25    1
   25    20    26    1
   26    26    27    1
   27    26    28    1
   28    26    29    1
@<TRIPOS>SUBSTRUCTURE
       1 MOL1            1 RESIDUE      1      MOL     
@<SCITEGIC>MOL_PROPERTY
VM2 Rank
SciTegic.value.IntegerValue
9

@<SCITEGIC>MOL_PROPERTY
Conf_Id
SciTegic.value.IntegerValue
887

@<SCITEGIC>MOL_PROPERTY
Probability
SciTegic.value.DoubleValue
3.35

@<SCITEGIC>MOL_PROPERTY
Sum Probability
SciTegic.value.DoubleValue
42.97

@<SCITEGIC>MOL_PROPERTY
Delta G
SciTegic.value.DoubleValue
0.691

@<SCITEGIC>MOL_PROPERTY
G
SciTegic.value.DoubleValue
34.392

@<SCITEGIC>MOL_PROPERTY
E
SciTegic.value.DoubleValue
-3.085

@<SCITEGIC>MOL_PROPERTY
-TS
SciTegic.value.DoubleValue
37.478

@<SCITEGIC>MOL_PROPERTY
U+W
SciTegic.value.DoubleValue
-27.230

@<SCITEGIC>MOL_PROPERTY
U
SciTegic.value.DoubleValue
25.011

@<SCITEGIC>MOL_PROPERTY
W
SciTegic.value.DoubleValue
-52.241

@<SCITEGIC>MOL_PROPERTY
W(PB)
SciTegic.value.DoubleValue
-54.752

@<SCITEGIC>MOL_PROPERTY
W(SA)
SciTegic.value.DoubleValue
2.511

@<SCITEGIC>MOL_PROPERTY
Valence
SciTegic.value.DoubleValue
3.709

@<SCITEGIC>MOL_PROPERTY
Coulomb
SciTegic.value.DoubleValue
20.125

@<SCITEGIC>MOL_PROPERTY
VdW
SciTegic.value.DoubleValue
1.178

@<SCITEGIC>MOL_PROPERTY
VdW6
SciTegic.value.DoubleValue
-8.624

@<SCITEGIC>MOL_PROPERTY
VdW12
SciTegic.value.DoubleValue
9.801

@<SCITEGIC>MOL_PROPERTY
Bond
SciTegic.value.DoubleValue
0.228

@<SCITEGIC>MOL_PROPERTY
Angle
SciTegic.value.DoubleValue
1.140

@<SCITEGIC>MOL_PROPERTY
Pdih
SciTegic.value.DoubleValue
2.340

@<SCITEGIC>MOL_PROPERTY
Idih
SciTegic.value.DoubleValue
0.000

@<SCITEGIC>MOL_PROPERTY
Tether
SciTegic.value.DoubleValue
0.000

@<TRIPOS>MOLECULE
guest-s15_vm2.mol2 : vm2 ligand conformer 10
          29          28           1
SMALL
USER_CHARGES
 
@<TRIPOS>ATOM
       1    C1      19.808492   20.325932   19.184645 C.3        1 MOL1        -0.2426
       2    H1      19.663812   19.532149   18.440191 H          1 MOL1         0.0959
       3    H2      18.877092   20.902814   19.254989 H          1 MOL1         0.0959
       4    H3      20.593601   20.997132   18.812981 H          1 MOL1         0.0959
       5    C2      20.200022   19.736273   20.556147 C.3        1 MOL1        -0.1410
       6    H4      20.375505   20.560032   21.260595 H          1 MOL1         0.0948
       7    H5      21.149012   19.190453   20.460371 H          1 MOL1         0.0948
       8    C3      19.105584   18.789388   21.102587 C.3        1 MOL1        -0.1435
       9    H6      18.171010   19.348456   21.248287 H          1 MOL1         0.0948
      10    H7      18.889979   18.020494   20.347851 H          1 MOL1         0.0948
      11    C4      19.499497   18.083054   22.423019 C.3        1 MOL1        -0.1435
      12    H8      20.424756   17.510249   22.271077 H          1 MOL1         0.0948
      13    H9      18.719725   17.349505   22.670475 H          1 MOL1         0.0948
      14    C5      19.674532   19.053587   23.615681 C.3        1 MOL1        -0.1435
      15    H10     20.505623   19.743281   23.418016 H          1 MOL1         0.0948
      16    H11     18.767503   19.663750   23.718878 H          1 MOL1         0.0948
      17    C6      19.953525   18.292739   24.934662 C.3        1 MOL1        -0.1500
      18    H12     20.828757   17.644904   24.791818 H          1 MOL1         0.0948
      19    H13     19.108618   17.631349   25.168499 H          1 MOL1         0.0948
      20    C7      20.221026   19.234741   26.128395 C.3        1 MOL1         0.1162
      21    H14     21.049877   19.898169   25.862849 H          1 MOL1         0.0910
      22    C8      20.630167   18.423575   27.368103 C.3        1 MOL1        -0.2491
      23    H15     20.857170   19.089112   28.210088 H          1 MOL1         0.0959
      24    H16     19.828967   17.740978   27.678088 H          1 MOL1         0.0959
      25    H17     21.527936   17.826627   27.164575 H          1 MOL1         0.0959
      26    N1      19.043155   20.116712   26.440761 N.4        1 MOL1        -0.5987
      27    H18     19.245123   20.748017   27.221356 H          1 MOL1         0.3605
      28    H19     18.221261   19.563741   26.698178 H          1 MOL1         0.3605
      29    H20     18.786380   20.695821   25.636786 H          1 MOL1         0.3605
@<TRIPOS>BOND
    1     1     2    1
    2     1     3    1
    3     1     4    1
    4     1     5    1
    5     5     6    1
    6     5     7    1
    7     5     8    1
    8     8     9    1
    9     8    10    1
   10     8    11    1
   11    11    12    1
   12    11    13    1
   13    11    14    1
   14    14    15    1
   15    14    16    1
   16    14    17    1
   17    17    18    1
   18    17    19    1
   19    17    20    1
   20    20    21    1
   21    20    22    1
   22    22    23    1
   23    22    24    1
   24    22    25    1
   25    20    26    1
   26    26    27    1
   27    26    28    1
   28    26    29    1
@<TRIPOS>SUBSTRUCTURE
       1 MOL1            1 RESIDUE      1      MOL     
@<SCITEGIC>MOL_PROPERTY
VM2 Rank
SciTegic.value.IntegerValue
10

@<SCITEGIC>MOL_PROPERTY
Conf_Id
SciTegic.value.IntegerValue
1225

@<SCITEGIC>MOL_PROPERTY
Probability
SciTegic.value.DoubleValue
3.30

@<SCITEGIC>MOL_PROPERTY
Sum Probability
SciTegic.value.DoubleValue
46.27

@<SCITEGIC>MOL_PROPERTY
Delta G
SciTegic.value.DoubleValue
0.699

@<SCITEGIC>MOL_PROPERTY
G
SciTegic.value.DoubleValue
34.401

@<SCITEGIC>MOL_PROPERTY
E
SciTegic.value.DoubleValue
-3.085

@<SCITEGIC>MOL_PROPERTY
-TS
SciTegic.value.DoubleValue
37.486

@<SCITEGIC>MOL_PROPERTY
U+W
SciTegic.value.DoubleValue
-27.230

@<SCITEGIC>MOL_PROPERTY
U
SciTegic.value.DoubleValue
24.821

@<SCITEGIC>MOL_PROPERTY
W
SciTegic.value.DoubleValue
-52.050

@<SCITEGIC>MOL_PROPERTY
W(PB)
SciTegic.value.DoubleValue
-54.565

@<SCITEGIC>MOL_PROPERTY
W(SA)
SciTegic.value.DoubleValue
2.514

@<SCITEGIC>MOL_PROPERTY
Valence
SciTegic.value.DoubleValue
3.711

@<SCITEGIC>MOL_PROPERTY
Coulomb
SciTegic.value.DoubleValue
19.938

@<SCITEGIC>MOL_PROPERTY
VdW
SciTegic.value.DoubleValue
1.172

@<SCITEGIC>MOL_PROPERTY
VdW6
SciTegic.value.DoubleValue
-8.614

@<SCITEGIC>MOL_PROPERTY
VdW12
SciTegic.value.DoubleValue
9.786

@<SCITEGIC>MOL_PROPERTY
Bond
SciTegic.value.DoubleValue
0.226

@<SCITEGIC>MOL_PROPERTY
Angle
SciTegic.value.DoubleValue
1.142

@<SCITEGIC>MOL_PROPERTY
Pdih
SciTegic.value.DoubleValue
2.342

@<SCITEGIC>MOL_PROPERTY
Idih
SciTegic.value.DoubleValue
0.000

@<SCITEGIC>MOL_PROPERTY
Tether
SciTegic.value.DoubleValue
0.000

@<TRIPOS>MOLECULE
guest-s15_vm2.mol2 : vm2 ligand conformer 11
          29          28           1
SMALL
USER_CHARGES
 
@<TRIPOS>ATOM
       1    C1      20.202274   19.677534   18.979567 C.3        1 MOL1        -0.2426
       2    H1      19.497426   18.945588   18.563999 H          1 MOL1         0.0959
       3    H2      20.188469   20.563970   18.332199 H          1 MOL1         0.0959
       4    H3      21.210121   19.244354   18.936595 H          1 MOL1         0.0959
       5    C2      19.821702   20.053942   20.427079 C.3        1 MOL1        -0.1410
       6    H4      18.824003   20.514865   20.433647 H          1 MOL1         0.0948
       7    H5      20.523548   20.811447   20.803220 H          1 MOL1         0.0948
       8    C3      19.833528   18.822857   21.359940 C.3        1 MOL1        -0.1435
       9    H6      19.132552   18.067668   20.978204 H          1 MOL1         0.0948
      10    H7      20.832061   18.364367   21.348599 H          1 MOL1         0.0948
      11    C4      19.452879   19.195859   22.810331 C.3        1 MOL1        -0.1435
      12    H8      18.452727   19.650781   22.821121 H          1 MOL1         0.0948
      13    H9      20.153528   19.955673   23.181414 H          1 MOL1         0.0948
      14    C5      19.469278   17.961308   23.743079 C.3        1 MOL1        -0.1435
      15    H10     18.805276   17.189731   23.329502 H          1 MOL1         0.0948
      16    H11     20.473803   17.518071   23.757073 H          1 MOL1         0.0948
      17    C6      19.008026   18.281247   25.188449 C.3        1 MOL1        -0.1500
      18    H12     19.030797   17.358364   25.783044 H          1 MOL1         0.0948
      19    H13     17.956512   18.595543   25.154709 H          1 MOL1         0.0948
      20    C7      19.828654   19.374810   25.912209 C.3        1 MOL1         0.1162
      21    H14     19.791845   20.288615   25.311932 H          1 MOL1         0.0910
      22    C8      21.302244   18.968797   26.091636 C.3        1 MOL1        -0.2491
      23    H15     21.802610   18.849922   25.123525 H          1 MOL1         0.0959
      24    H16     21.850430   19.738914   26.648135 H          1 MOL1         0.0959
      25    H17     21.389101   18.023889   26.642315 H          1 MOL1         0.0959
      26    N1      19.217414   19.719646   27.241709 N.4        1 MOL1        -0.5987
      27    H18     19.734284   20.471013   27.707534 H          1 MOL1         0.3605
      28    H19     19.215642   18.913655   27.872684 H          1 MOL1         0.3605
      29    H20     18.247842   20.033769   27.141015 H          1 MOL1         0.3605
@<TRIPOS>BOND
    1     1     2    1
    2     1     3    1
    3     1     4    1
    4     1     5    1
    5     5     6    1
    6     5     7    1
    7     5     8    1
    8     8     9    1
    9     8    10    1
   10     8    11    1
   11    11    12    1
   12    11    13    1
   13    11    14    1
   14    14    15    1
   15    14    16    1
   16    14    17    1
   17    17    18    1
   18    17    19    1
   19    17    20    1
   20    20    21    1
   21    20    22    1
   22    22    23    1
   23    22    24    1
   24    22    25    1
   25    20    26    1
   26    26    27    1
   27    26    28    1
   28    26    29    1
@<TRIPOS>SUBSTRUCTURE
       1 MOL1            1 RESIDUE      1      MOL     
@<SCITEGIC>MOL_PROPERTY
VM2 Rank
SciTegic.value.IntegerValue
11

@<SCITEGIC>MOL_PROPERTY
Conf_Id
SciTegic.value.IntegerValue
264

@<SCITEGIC>MOL_PROPERTY
Probability
SciTegic.value.DoubleValue
2.31

@<SCITEGIC>MOL_PROPERTY
Sum Probability
SciTegic.value.DoubleValue
48.57

@<SCITEGIC>MOL_PROPERTY
Delta G
SciTegic.value.DoubleValue
0.913

@<SCITEGIC>MOL_PROPERTY
G
SciTegic.value.DoubleValue
34.615

@<SCITEGIC>MOL_PROPERTY
E
SciTegic.value.DoubleValue
-3.059

@<SCITEGIC>MOL_PROPERTY
-TS
SciTegic.value.DoubleValue
37.674

@<SCITEGIC>MOL_PROPERTY
U+W
SciTegic.value.DoubleValue
-27.204

@<SCITEGIC>MOL_PROPERTY
U
SciTegic.value.DoubleValue
24.848

@<SCITEGIC>MOL_PROPERTY
W
SciTegic.value.DoubleValue
-52.052

@<SCITEGIC>MOL_PROPERTY
W(PB)
SciTegic.value.DoubleValue
-54.585

@<SCITEGIC>MOL_PROPERTY
W(SA)
SciTegic.value.DoubleValue
2.533

@<SCITEGIC>MOL_PROPERTY
Valence
SciTegic.value.DoubleValue
3.959

@<SCITEGIC>MOL_PROPERTY
Coulomb
SciTegic.value.DoubleValue
19.891

@<SCITEGIC>MOL_PROPERTY
VdW
SciTegic.value.DoubleValue
0.998

@<SCITEGIC>MOL_PROPERTY
VdW6
SciTegic.value.DoubleValue
-9.069

@<SCITEGIC>MOL_PROPERTY
VdW12
SciTegic.value.DoubleValue
10.067

@<SCITEGIC>MOL_PROPERTY
Bond
SciTegic.value.DoubleValue
0.229

@<SCITEGIC>MOL_PROPERTY
Angle
SciTegic.value.DoubleValue
1.422

@<SCITEGIC>MOL_PROPERTY
Pdih
SciTegic.value.DoubleValue
2.308

@<SCITEGIC>MOL_PROPERTY
Idih
SciTegic.value.DoubleValue
0.000

@<SCITEGIC>MOL_PROPERTY
Tether
SciTegic.value.DoubleValue
0.000

@<TRIPOS>MOLECULE
guest-s15_vm2.mol2 : vm2 ligand conformer 12
          29          28           1
SMALL
USER_CHARGES
 
@<TRIPOS>ATOM
       1    C1      19.099207   20.045051   19.397779 C.3        1 MOL1        -0.2426
       2    H1      18.224011   20.175256   20.046264 H          1 MOL1         0.0959
       3    H2      19.701633   20.961558   19.443901 H          1 MOL1         0.0959
       4    H3      18.733591   19.934979   18.368633 H          1 MOL1         0.0959
       5    C2      19.932906   18.810812   19.810240 C.3        1 MOL1        -0.1410
       6    H4      20.722956   18.651631   19.063082 H          1 MOL1         0.0948
       7    H5      19.300465   17.912414   19.785201 H          1 MOL1         0.0948
       8    C3      20.589416   18.950022   21.204884 C.3        1 MOL1        -0.1435
       9    H6      21.247616   18.085454   21.367917 H          1 MOL1         0.0948
      10    H7      21.236296   19.838047   21.218751 H          1 MOL1         0.0948
      11    C4      19.565932   19.031598   22.362715 C.3        1 MOL1        -0.1435
      12    H8      18.888163   18.168154   22.314621 H          1 MOL1         0.0948
      13    H9      18.946339   19.930919   22.250105 H          1 MOL1         0.0948
      14    C5      20.262188   19.064689   23.742186 C.3        1 MOL1        -0.1435
      15    H10     20.882720   18.165589   23.850885 H          1 MOL1         0.0948
      16    H11     20.938953   19.929093   23.790140 H          1 MOL1         0.0948
      17    C6      19.237579   19.145736   24.900428 C.3        1 MOL1        -0.1500
      18    H12     18.600639   18.251196   24.894741 H          1 MOL1         0.0948
      19    H13     18.573641   20.001566   24.720263 H          1 MOL1         0.0948
      20    C7      19.884730   19.314540   26.294029 C.3        1 MOL1         0.1162
      21    H14     20.546034   20.185914   26.262159 H          1 MOL1         0.0910
      22    C8      20.717279   18.085330   26.700453 C.3        1 MOL1        -0.2491
      23    H15     20.109785   17.171859   26.684996 H          1 MOL1         0.0959
      24    H16     21.571391   17.942009   26.028655 H          1 MOL1         0.0959
      25    H17     21.119456   18.209107   27.713513 H          1 MOL1         0.0959
      26    N1      18.846762   19.608222   27.341284 N.4        1 MOL1        -0.5987
      27    H18     18.183221   18.834764   27.437464 H          1 MOL1         0.3605
      28    H19     18.308454   20.449181   27.113429 H          1 MOL1         0.3605
      29    H20     19.274338   19.759974   28.259370 H          1 MOL1         0.3605
@<TRIPOS>BOND
    1     1     2    1
    2     1     3    1
    3     1     4    1
    4     1     5    1
    5     5     6    1
    6     5     7    1
    7     5     8    1
    8     8     9    1
    9     8    10    1
   10     8    11    1
   11    11    12    1
   12    11    13    1
   13    11    14    1
   14    14    15    1
   15    14    16    1
   16    14    17    1
   17    17    18    1
   18    17    19    1
   19    17    20    1
   20    20    21    1
   21    20    22    1
   22    22    23    1
   23    22    24    1
   24    22    25    1
   25    20    26    1
   26    26    27    1
   27    26    28    1
   28    26    29    1
@<TRIPOS>SUBSTRUCTURE
       1 MOL1            1 RESIDUE      1      MOL     
@<SCITEGIC>MOL_PROPERTY
VM2 Rank
SciTegic.value.IntegerValue
12

@<SCITEGIC>MOL_PROPERTY
Conf_Id
SciTegic.value.IntegerValue
1028

@<SCITEGIC>MOL_PROPERTY
Probability
SciTegic.value.DoubleValue
1.91

@<SCITEGIC>MOL_PROPERTY
Sum Probability
SciTegic.value.DoubleValue
50.48

@<SCITEGIC>MOL_PROPERTY
Delta G
SciTegic.value.DoubleValue
1.026

@<SCITEGIC>MOL_PROPERTY
G
SciTegic.value.DoubleValue
34.728

@<SCITEGIC>MOL_PROPERTY
E
SciTegic.value.DoubleValue
-2.781

@<SCITEGIC>MOL_PROPERTY
-TS
SciTegic.value.DoubleValue
37.509

@<SCITEGIC>MOL_PROPERTY
U+W
SciTegic.value.DoubleValue
-26.925

@<SCITEGIC>MOL_PROPERTY
U
SciTegic.value.DoubleValue
24.926

@<SCITEGIC>MOL_PROPERTY
W
SciTegic.value.DoubleValue
-51.852

@<SCITEGIC>MOL_PROPERTY
W(PB)
SciTegic.value.DoubleValue
-54.366

@<SCITEGIC>MOL_PROPERTY
W(SA)
SciTegic.value.DoubleValue
2.514

@<SCITEGIC>MOL_PROPERTY
Valence
SciTegic.value.DoubleValue
4.212

@<SCITEGIC>MOL_PROPERTY
Coulomb
SciTegic.value.DoubleValue
19.386

@<SCITEGIC>MOL_PROPERTY
VdW
SciTegic.value.DoubleValue
1.329

@<SCITEGIC>MOL_PROPERTY
VdW6
SciTegic.value.DoubleValue
-8.714

@<SCITEGIC>MOL_PROPERTY
VdW12
SciTegic.value.DoubleValue
10.043

@<SCITEGIC>MOL_PROPERTY
Bond
SciTegic.value.DoubleValue
0.235

@<SCITEGIC>MOL_PROPERTY
Angle
SciTegic.value.DoubleValue
1.400

@<SCITEGIC>MOL_PROPERTY
Pdih
SciTegic.value.DoubleValue
2.577

@<SCITEGIC>MOL_PROPERTY
Idih
SciTegic.value.DoubleValue
0.000

@<SCITEGIC>MOL_PROPERTY
Tether
SciTegic.value.DoubleValue
0.000

@<TRIPOS>MOLECULE
guest-s15_vm2.mol2 : vm2 ligand conformer 13
          29          28           1
SMALL
USER_CHARGES
 
@<TRIPOS>ATOM
       1    C1      18.911887   18.726779   19.381561 C.3        1 MOL1        -0.2426
       2    H1      19.249604   17.682281   19.380869 H          1 MOL1         0.0959
       3    H2      18.033261   18.804145   20.033856 H          1 MOL1         0.0959
       4    H3      18.588976   18.975943   18.362454 H          1 MOL1         0.0959
       5    C2      20.042941   19.676121   19.837615 C.3        1 MOL1        -0.1410
       6    H4      19.671525   20.710205   19.858776 H          1 MOL1         0.0948
       7    H5      20.847321   19.653534   19.089134 H          1 MOL1         0.0948
       8    C3      20.638179   19.305416   21.217346 C.3        1 MOL1        -0.1435
       9    H6      21.026371   18.278042   21.185102 H          1 MOL1         0.0948
      10    H7      21.501973   19.956430   21.410578 H          1 MOL1         0.0948
      11    C4      19.629029   19.446100   22.382046 C.3        1 MOL1        -0.1435
      12    H8      18.793326   18.748608   22.238761 H          1 MOL1         0.0948
      13    H9      19.204244   20.459371   22.377962 H          1 MOL1         0.0948
      14    C5      20.290881   19.167862   23.750720 C.3        1 MOL1        -0.1435
      15    H10     20.722294   18.158369   23.739338 H          1 MOL1         0.0948
      16    H11     21.121788   19.869928   23.906160 H          1 MOL1         0.0948
      17    C6      19.278715   19.300268   24.915132 C.3        1 MOL1        -0.1500
      18    H12     18.480534   18.555095   24.798713 H          1 MOL1         0.0948
      19    H13     18.797207   20.284901   24.849018 H          1 MOL1         0.0948
      20    C7      19.918626   19.162358   26.315450 C.3        1 MOL1         0.1162
      21    H14     20.736791   19.885147   26.391683 H          1 MOL1         0.0910
      22    C8      20.488944   17.753226   26.557020 C.3        1 MOL1        -0.2491
      23    H15     20.887611   17.667322   27.575372 H          1 MOL1         0.0959
      24    H16     19.716295   16.984997   26.428360 H          1 MOL1         0.0959
      25    H17     21.312015   17.532312   25.867730 H          1 MOL1         0.0959
      26    N1      18.936799   19.517871   27.397109 N.4        1 MOL1        -0.5987
      27    H18     18.576269   20.469464   27.281352 H          1 MOL1         0.3605
      28    H19     19.367492   19.466301   28.324782 H          1 MOL1         0.3605
      29    H20     18.134181   18.882593   27.397244 H          1 MOL1         0.3605
@<TRIPOS>BOND
    1     1     2    1
    2     1     3    1
    3     1     4    1
    4     1     5    1
    5     5     6    1
    6     5     7    1
    7     5     8    1
    8     8     9    1
    9     8    10    1
   10     8    11    1
   11    11    12    1
   12    11    13    1
   13    11    14    1
   14    14    15    1
   15    14    16    1
   16    14    17    1
   17    17    18    1
   18    17    19    1
   19    17    20    1
   20    20    21    1
   21    20    22    1
   22    22    23    1
   23    22    24    1
   24    22    25    1
   25    20    26    1
   26    26    27    1
   27    26    28    1
   28    26    29    1
@<TRIPOS>SUBSTRUCTURE
       1 MOL1            1 RESIDUE      1      MOL     
@<SCITEGIC>MOL_PROPERTY
VM2 Rank
SciTegic.value.IntegerValue
13

@<SCITEGIC>MOL_PROPERTY
Conf_Id
SciTegic.value.IntegerValue
672

@<SCITEGIC>MOL_PROPERTY
Probability
SciTegic.value.DoubleValue
1.74

@<SCITEGIC>MOL_PROPERTY
Sum Probability
SciTegic.value.DoubleValue
52.22

@<SCITEGIC>MOL_PROPERTY
Delta G
SciTegic.value.DoubleValue
1.081

@<SCITEGIC>MOL_PROPERTY
G
SciTegic.value.DoubleValue
34.783

@<SCITEGIC>MOL_PROPERTY
E
SciTegic.value.DoubleValue
-2.727

@<SCITEGIC>MOL_PROPERTY
-TS
SciTegic.value.DoubleValue
37.509

@<SCITEGIC>MOL_PROPERTY
U+W
SciTegic.value.DoubleValue
-26.871

@<SCITEGIC>MOL_PROPERTY
U
SciTegic.value.DoubleValue
24.913

@<SCITEGIC>MOL_PROPERTY
W
SciTegic.value.DoubleValue
-51.782

@<SCITEGIC>MOL_PROPERTY
W(PB)
SciTegic.value.DoubleValue
-54.309

@<SCITEGIC>MOL_PROPERTY
W(SA)
SciTegic.value.DoubleValue
2.527

@<SCITEGIC>MOL_PROPERTY
Valence
SciTegic.value.DoubleValue
4.213

@<SCITEGIC>MOL_PROPERTY
Coulomb
SciTegic.value.DoubleValue
19.377

@<SCITEGIC>MOL_PROPERTY
VdW
SciTegic.value.DoubleValue
1.323

@<SCITEGIC>MOL_PROPERTY
VdW6
SciTegic.value.DoubleValue
-8.715

@<SCITEGIC>MOL_PROPERTY
VdW12
SciTegic.value.DoubleValue
10.039

@<SCITEGIC>MOL_PROPERTY
Bond
SciTegic.value.DoubleValue
0.234

@<SCITEGIC>MOL_PROPERTY
Angle
SciTegic.value.DoubleValue
1.400

@<SCITEGIC>MOL_PROPERTY
Pdih
SciTegic.value.DoubleValue
2.578

@<SCITEGIC>MOL_PROPERTY
Idih
SciTegic.value.DoubleValue
0.000

@<SCITEGIC>MOL_PROPERTY
Tether
SciTegic.value.DoubleValue
0.000

@<TRIPOS>MOLECULE
guest-s15_vm2.mol2 : vm2 ligand conformer 14
          29          28           1
SMALL
USER_CHARGES
 
@<TRIPOS>ATOM
       1    C1      20.459038   19.913227   19.135710 C.3        1 MOL1        -0.2426
       2    H1      21.387432   19.329920   19.080143 H          1 MOL1         0.0959
       3    H2      19.739284   19.478702   18.429752 H          1 MOL1         0.0959
       4    H3      20.682410   20.935104   18.802677 H          1 MOL1         0.0959
       5    C2      19.893660   19.919523   20.571784 C.3        1 MOL1        -0.1410
       6    H4      18.982967   20.533855   20.601961 H          1 MOL1         0.0948
       7    H5      20.623013   20.397250   21.239210 H          1 MOL1         0.0948
       8    C3      19.574988   18.488352   21.064894 C.3        1 MOL1        -0.1435
       9    H6      18.907230   18.001924   20.340463 H          1 MOL1         0.0948
      10    H7      20.496135   17.889762   21.084809 H          1 MOL1         0.0948
      11    C4      18.899543   18.448458   22.457675 C.3        1 MOL1        -0.1435
      12    H8      18.607087   17.411264   22.672333 H          1 MOL1         0.0948
      13    H9      17.969021   19.032163   22.431068 H          1 MOL1         0.0948
      14    C5      19.807622   18.962302   23.600797 C.3        1 MOL1        -0.1435
      15    H10     20.758737   18.414717   23.574810 H          1 MOL1         0.0948
      16    H11     20.042176   20.023392   23.444751 H          1 MOL1         0.0948
      17    C6      19.134704   18.792043   24.985001 C.3        1 MOL1        -0.1500
      18    H12     18.961420   17.726155   25.184437 H          1 MOL1         0.0948
      19    H13     18.145470   19.267590   24.952999 H          1 MOL1         0.0948
      20    C7      19.938811   19.414454   26.149232 C.3        1 MOL1         0.1162
      21    H14     20.132868   20.464482   25.909635 H          1 MOL1         0.0910
      22    C8      21.288299   18.706688   26.366435 C.3        1 MOL1        -0.2491
      23    H15     21.812957   19.132370   27.230660 H          1 MOL1         0.0959
      24    H16     21.148919   17.633672   26.547884 H          1 MOL1         0.0959
      25    H17     21.945889   18.826232   25.497710 H          1 MOL1         0.0959
      26    N1      19.139334   19.410953   27.422473 N.4        1 MOL1        -0.5987
      27    H18     19.652580   19.858077   28.187577 H          1 MOL1         0.3605
      28    H19     18.915467   18.457744   27.720880 H          1 MOL1         0.3605
      29    H20     18.254619   19.915291   27.313727 H          1 MOL1         0.3605
@<TRIPOS>BOND
    1     1     2    1
    2     1     3    1
    3     1     4    1
    4     1     5    1
    5     5     6    1
    6     5     7    1
    7     5     8    1
    8     8     9    1
    9     8    10    1
   10     8    11    1
   11    11    12    1
   12    11    13    1
   13    11    14    1
   14    14    15    1
   15    14    16    1
   16    14    17    1
   17    17    18    1
   18    17    19    1
   19    17    20    1
   20    20    21    1
   21    20    22    1
   22    22    23    1
   23    22    24    1
   24    22    25    1
   25    20    26    1
   26    26    27    1
   27    26    28    1
   28    26    29    1
@<TRIPOS>SUBSTRUCTURE
       1 MOL1            1 RESIDUE      1      MOL     
@<SCITEGIC>MOL_PROPERTY
VM2 Rank
SciTegic.value.IntegerValue
14

@<SCITEGIC>MOL_PROPERTY
Conf_Id
SciTegic.value.IntegerValue
1189

@<SCITEGIC>MOL_PROPERTY
Probability
SciTegic.value.DoubleValue
1.74

@<SCITEGIC>MOL_PROPERTY
Sum Probability
SciTegic.value.DoubleValue
53.96

@<SCITEGIC>MOL_PROPERTY
Delta G
SciTegic.value.DoubleValue
1.082

@<SCITEGIC>MOL_PROPERTY
G
SciTegic.value.DoubleValue
34.784

@<SCITEGIC>MOL_PROPERTY
E
SciTegic.value.DoubleValue
-2.717

@<SCITEGIC>MOL_PROPERTY
-TS
SciTegic.value.DoubleValue
37.502

@<SCITEGIC>MOL_PROPERTY
U+W
SciTegic.value.DoubleValue
-26.862

@<SCITEGIC>MOL_PROPERTY
U
SciTegic.value.DoubleValue
25.086

@<SCITEGIC>MOL_PROPERTY
W
SciTegic.value.DoubleValue
-51.948

@<SCITEGIC>MOL_PROPERTY
W(PB)
SciTegic.value.DoubleValue
-54.500

@<SCITEGIC>MOL_PROPERTY
W(SA)
SciTegic.value.DoubleValue
2.552

@<SCITEGIC>MOL_PROPERTY
Valence
SciTegic.value.DoubleValue
4.251

@<SCITEGIC>MOL_PROPERTY
Coulomb
SciTegic.value.DoubleValue
19.539

@<SCITEGIC>MOL_PROPERTY
VdW
SciTegic.value.DoubleValue
1.297

@<SCITEGIC>MOL_PROPERTY
VdW6
SciTegic.value.DoubleValue
-8.775

@<SCITEGIC>MOL_PROPERTY
VdW12
SciTegic.value.DoubleValue
10.072

@<SCITEGIC>MOL_PROPERTY
Bond
SciTegic.value.DoubleValue
0.238

@<SCITEGIC>MOL_PROPERTY
Angle
SciTegic.value.DoubleValue
1.421

@<SCITEGIC>MOL_PROPERTY
Pdih
SciTegic.value.DoubleValue
2.592

@<SCITEGIC>MOL_PROPERTY
Idih
SciTegic.value.DoubleValue
0.000

@<SCITEGIC>MOL_PROPERTY
Tether
SciTegic.value.DoubleValue
0.000

@<TRIPOS>MOLECULE
guest-s15_vm2.mol2 : vm2 ligand conformer 15
          29          28           1
SMALL
USER_CHARGES
 
@<TRIPOS>ATOM
       1    C1      20.683456   19.459137   19.171757 C.3        1 MOL1        -0.2426
       2    H1      21.387925   20.245838   19.471857 H          1 MOL1         0.0959
       3    H2      21.223612   18.503481   19.157748 H          1 MOL1         0.0959
       4    H3      20.353627   19.674972   18.147224 H          1 MOL1         0.0959
       5    C2      19.476352   19.399768   20.131612 C.3        1 MOL1        -0.1410
       6    H4      18.773901   18.628410   19.786022 H          1 MOL1         0.0948
       7    H5      18.937326   20.357011   20.099452 H          1 MOL1         0.0948
       8    C3      19.913212   19.096276   21.581823 C.3        1 MOL1        -0.1435
       9    H6      20.449697   18.137830   21.609184 H          1 MOL1         0.0948
      10    H7      20.620826   19.868352   21.910827 H          1 MOL1         0.0948
      11    C4      18.703790   19.040561   22.545837 C.3        1 MOL1        -0.1435
      12    H8      17.970657   18.320027   22.157623 H          1 MOL1         0.0948
      13    H9      18.197883   20.015771   22.562876 H          1 MOL1         0.0948
      14    C5      19.080668   18.625758   23.989305 C.3        1 MOL1        -0.1435
      15    H10     18.152240   18.498239   24.561035 H          1 MOL1         0.0948
      16    H11     19.567311   17.641763   23.963790 H          1 MOL1         0.0948
      17    C6      19.994953   19.656112   24.706786 C.3        1 MOL1        -0.1500
      18    H12     19.545525   20.654661   24.628247 H          1 MOL1         0.0948
      19    H13     20.960913   19.716060   24.190132 H          1 MOL1         0.0948
      20    C7      20.263431   19.355927   26.200398 C.3        1 MOL1         0.1162
      21    H14     20.905240   20.155821   26.582518 H          1 MOL1         0.0910
      22    C8      21.010596   18.025345   26.396633 C.3        1 MOL1        -0.2491
      23    H15     21.924125   17.998084   25.789748 H          1 MOL1         0.0959
      24    H16     21.304640   17.901661   27.446125 H          1 MOL1         0.0959
      25    H17     20.387894   17.166317   26.119727 H          1 MOL1         0.0959
      26    N1      19.009542   19.397114   27.029849 N.4        1 MOL1        -0.5987
      27    H18     18.528234   20.296362   26.938190 H          1 MOL1         0.3605
      28    H19     19.213873   19.259070   28.023750 H          1 MOL1         0.3605
      29    H20     18.352893   18.665510   26.746973 H          1 MOL1         0.3605
@<TRIPOS>BOND
    1     1     2    1
    2     1     3    1
    3     1     4    1
    4     1     5    1
    5     5     6    1
    6     5     7    1
    7     5     8    1
    8     8     9    1
    9     8    10    1
   10     8    11    1
   11    11    12    1
   12    11    13    1
   13    11    14    1
   14    14    15    1
   15    14    16    1
   16    14    17    1
   17    17    18    1
   18    17    19    1
   19    17    20    1
   20    20    21    1
   21    20    22    1
   22    22    23    1
   23    22    24    1
   24    22    25    1
   25    20    26    1
   26    26    27    1
   27    26    28    1
   28    26    29    1
@<TRIPOS>SUBSTRUCTURE
       1 MOL1            1 RESIDUE      1      MOL     
@<SCITEGIC>MOL_PROPERTY
VM2 Rank
SciTegic.value.IntegerValue
15

@<SCITEGIC>MOL_PROPERTY
Conf_Id
SciTegic.value.IntegerValue
664

@<SCITEGIC>MOL_PROPERTY
Probability
SciTegic.value.DoubleValue
1.71

@<SCITEGIC>MOL_PROPERTY
Sum Probability
SciTegic.value.DoubleValue
55.67

@<SCITEGIC>MOL_PROPERTY
Delta G
SciTegic.value.DoubleValue
1.090

@<SCITEGIC>MOL_PROPERTY
G
SciTegic.value.DoubleValue
34.791

@<SCITEGIC>MOL_PROPERTY
E
SciTegic.value.DoubleValue
-2.851

@<SCITEGIC>MOL_PROPERTY
-TS
SciTegic.value.DoubleValue
37.642

@<SCITEGIC>MOL_PROPERTY
U+W
SciTegic.value.DoubleValue
-26.996

@<SCITEGIC>MOL_PROPERTY
U
SciTegic.value.DoubleValue
25.162

@<SCITEGIC>MOL_PROPERTY
W
SciTegic.value.DoubleValue
-52.157

@<SCITEGIC>MOL_PROPERTY
W(PB)
SciTegic.value.DoubleValue
-54.678

@<SCITEGIC>MOL_PROPERTY
W(SA)
SciTegic.value.DoubleValue
2.521

@<SCITEGIC>MOL_PROPERTY
Valence
SciTegic.value.DoubleValue
4.202

@<SCITEGIC>MOL_PROPERTY
Coulomb
SciTegic.value.DoubleValue
19.686

@<SCITEGIC>MOL_PROPERTY
VdW
SciTegic.value.DoubleValue
1.274

@<SCITEGIC>MOL_PROPERTY
VdW6
SciTegic.value.DoubleValue
-9.288

@<SCITEGIC>MOL_PROPERTY
VdW12
SciTegic.value.DoubleValue
10.561

@<SCITEGIC>MOL_PROPERTY
Bond
SciTegic.value.DoubleValue
0.271

@<SCITEGIC>MOL_PROPERTY
Angle
SciTegic.value.DoubleValue
1.436

@<SCITEGIC>MOL_PROPERTY
Pdih
SciTegic.value.DoubleValue
2.495

@<SCITEGIC>MOL_PROPERTY
Idih
SciTegic.value.DoubleValue
0.000

@<SCITEGIC>MOL_PROPERTY
Tether
SciTegic.value.DoubleValue
0.000

@<TRIPOS>MOLECULE
guest-s15_vm2.mol2 : vm2 ligand conformer 16
          29          28           1
SMALL
USER_CHARGES
 
@<TRIPOS>ATOM
       1    C1      18.574154   19.229430   19.295281 C.3        1 MOL1        -0.2426
       2    H1      18.710330   19.555168   18.255861 H          1 MOL1         0.0959
       3    H2      18.324714   18.160371   19.283607 H          1 MOL1         0.0959
       4    H3      17.717319   19.776065   19.710324 H          1 MOL1         0.0959
       5    C2      19.851854   19.491724   20.120272 C.3        1 MOL1        -0.1410
       6    H4      20.094411   20.563131   20.086312 H          1 MOL1         0.0948
       7    H5      20.697289   18.960386   19.661151 H          1 MOL1         0.0948
       8    C3      19.687123   19.041036   21.588525 C.3        1 MOL1        -0.1435
       9    H6      18.834771   19.571856   22.032388 H          1 MOL1         0.0948
      10    H7      19.446763   17.969313   21.617450 H          1 MOL1         0.0948
      11    C4      20.966264   19.307400   22.417810 C.3        1 MOL1        -0.1435
      12    H8      21.179878   20.385084   22.433786 H          1 MOL1         0.0948
      13    H9      21.821839   18.831062   21.919355 H          1 MOL1         0.0948
      14    C5      20.883761   18.772677   23.868597 C.3        1 MOL1        -0.1435
      15    H10     20.701791   17.690191   23.841287 H          1 MOL1         0.0948
      16    H11     21.862810   18.911849   24.347673 H          1 MOL1         0.0948
      17    C6      19.798685   19.476665   24.723606 C.3        1 MOL1        -0.1500
      18    H12     18.799742   19.233623   24.339855 H          1 MOL1         0.0948
      19    H13     19.919757   20.562809   24.617989 H          1 MOL1         0.0948
      20    C7      19.867774   19.119814   26.225820 C.3        1 MOL1         0.1162
      21    H14     20.879383   19.334982   26.583538 H          1 MOL1         0.0910
      22    C8      19.566570   17.632223   26.481656 C.3        1 MOL1        -0.2491
      23    H15     18.582280   17.352842   26.085639 H          1 MOL1         0.0959
      24    H16     20.320419   16.987129   26.015714 H          1 MOL1         0.0959
      25    H17     19.574502   17.415869   27.557048 H          1 MOL1         0.0959
      26    N1      18.939816   19.985031   27.032432 N.4        1 MOL1        -0.5987
      27    H18     19.150530   20.979843   26.910603 H          1 MOL1         0.3605
      28    H19     19.011762   19.778980   28.032979 H          1 MOL1         0.3605
      29    H20     17.963509   19.841571   26.760477 H          1 MOL1         0.3605
@<TRIPOS>BOND
    1     1     2    1
    2     1     3    1
    3     1     4    1
    4     1     5    1
    5     5     6    1
    6     5     7    1
    7     5     8    1
    8     8     9    1
    9     8    10    1
   10     8    11    1
   11    11    12    1
   12    11    13    1
   13    11    14    1
   14    14    15    1
   15    14    16    1
   16    14    17    1
   17    17    18    1
   18    17    19    1
   19    17    20    1
   20    20    21    1
   21    20    22    1
   22    22    23    1
   23    22    24    1
   24    22    25    1
   25    20    26    1
   26    26    27    1
   27    26    28    1
   28    26    29    1
@<TRIPOS>SUBSTRUCTURE
       1 MOL1            1 RESIDUE      1      MOL     
@<SCITEGIC>MOL_PROPERTY
VM2 Rank
SciTegic.value.IntegerValue
16

@<SCITEGIC>MOL_PROPERTY
Conf_Id
SciTegic.value.IntegerValue
591

@<SCITEGIC>MOL_PROPERTY
Probability
SciTegic.value.DoubleValue
1.64

@<SCITEGIC>MOL_PROPERTY
Sum Probability
SciTegic.value.DoubleValue
57.31

@<SCITEGIC>MOL_PROPERTY
Delta G
SciTegic.value.DoubleValue
1.115

@<SCITEGIC>MOL_PROPERTY
G
SciTegic.value.DoubleValue
34.817

@<SCITEGIC>MOL_PROPERTY
E
SciTegic.value.DoubleValue
-2.717

@<SCITEGIC>MOL_PROPERTY
-TS
SciTegic.value.DoubleValue
37.534

@<SCITEGIC>MOL_PROPERTY
U+W
SciTegic.value.DoubleValue
-26.861

@<SCITEGIC>MOL_PROPERTY
U
SciTegic.value.DoubleValue
25.129

@<SCITEGIC>MOL_PROPERTY
W
SciTegic.value.DoubleValue
-51.990

@<SCITEGIC>MOL_PROPERTY
W(PB)
SciTegic.value.DoubleValue
-54.525

@<SCITEGIC>MOL_PROPERTY
W(SA)
SciTegic.value.DoubleValue
2.535

@<SCITEGIC>MOL_PROPERTY
Valence
SciTegic.value.DoubleValue
4.206

@<SCITEGIC>MOL_PROPERTY
Coulomb
SciTegic.value.DoubleValue
19.678

@<SCITEGIC>MOL_PROPERTY
VdW
SciTegic.value.DoubleValue
1.245

@<SCITEGIC>MOL_PROPERTY
VdW6
SciTegic.value.DoubleValue
-8.834

@<SCITEGIC>MOL_PROPERTY
VdW12
SciTegic.value.DoubleValue
10.079

@<SCITEGIC>MOL_PROPERTY
Bond
SciTegic.value.DoubleValue
0.240

@<SCITEGIC>MOL_PROPERTY
Angle
SciTegic.value.DoubleValue
1.353

@<SCITEGIC>MOL_PROPERTY
Pdih
SciTegic.value.DoubleValue
2.613

@<SCITEGIC>MOL_PROPERTY
Idih
SciTegic.value.DoubleValue
0.000

@<SCITEGIC>MOL_PROPERTY
Tether
SciTegic.value.DoubleValue
0.000

@<TRIPOS>MOLECULE
guest-s15_vm2.mol2 : vm2 ligand conformer 17
          29          28           1
SMALL
USER_CHARGES
 
@<TRIPOS>ATOM
       1    C1      20.306880   18.573634   19.517914 C.3        1 MOL1        -0.2426
       2    H1      21.247086   19.067577   19.792886 H          1 MOL1         0.0959
       3    H2      20.351482   17.532257   19.862240 H          1 MOL1         0.0959
       4    H3      20.247791   18.562829   18.421872 H          1 MOL1         0.0959
       5    C2      19.085251   19.305432   20.118322 C.3        1 MOL1        -0.1410
       6    H4      18.167854   18.847815   19.722458 H          1 MOL1         0.0948
       7    H5      19.077935   20.351053   19.780195 H          1 MOL1         0.0948
       8    C3      19.039099   19.254594   21.664392 C.3        1 MOL1        -0.1435
       9    H6      18.094910   19.704626   22.000608 H          1 MOL1         0.0948
      10    H7      19.016814   18.205674   21.987973 H          1 MOL1         0.0948
      11    C4      20.221912   19.995094   22.337937 C.3        1 MOL1        -0.1435
      12    H8      20.303140   21.003994   21.910597 H          1 MOL1         0.0948
      13    H9      21.166138   19.484087   22.107895 H          1 MOL1         0.0948
      14    C5      20.072807   20.121949   23.873752 C.3        1 MOL1        -0.1435
      15    H10     20.897976   20.740168   24.253850 H          1 MOL1         0.0948
      16    H11     19.146450   20.665552   24.102432 H          1 MOL1         0.0948
      17    C6      20.086129   18.756308   24.606879 C.3        1 MOL1        -0.1500
      18    H12     20.967005   18.186954   24.281600 H          1 MOL1         0.0948
      19    H13     19.206119   18.165540   24.322633 H          1 MOL1         0.0948
      20    C7      20.126946   18.902250   26.143211 C.3        1 MOL1         0.1162
      21    H14     21.000151   19.506744   26.407278 H          1 MOL1         0.0910
      22    C8      20.274850   17.524252   26.807667 C.3        1 MOL1        -0.2491
      23    H15     20.341763   17.624153   27.898052 H          1 MOL1         0.0959
      24    H16     19.419450   16.877520   26.575362 H          1 MOL1         0.0959
      25    H17     21.186999   17.021258   26.463082 H          1 MOL1         0.0959
      26    N1      18.922125   19.622487   26.683926 N.4        1 MOL1        -0.5987
      27    H18     18.975763   19.730177   27.700866 H          1 MOL1         0.3605
      28    H19     18.058743   19.114535   26.474129 H          1 MOL1         0.3605
      29    H20     18.835183   20.559237   26.280611 H          1 MOL1         0.3605
@<TRIPOS>BOND
    1     1     2    1
    2     1     3    1
    3     1     4    1
    4     1     5    1
    5     5     6    1
    6     5     7    1
    7     5     8    1
    8     8     9    1
    9     8    10    1
   10     8    11    1
   11    11    12    1
   12    11    13    1
   13    11    14    1
   14    14    15    1
   15    14    16    1
   16    14    17    1
   17    17    18    1
   18    17    19    1
   19    17    20    1
   20    20    21    1
   21    20    22    1
   22    22    23    1
   23    22    24    1
   24    22    25    1
   25    20    26    1
   26    26    27    1
   27    26    28    1
   28    26    29    1
@<TRIPOS>SUBSTRUCTURE
       1 MOL1            1 RESIDUE      1      MOL     
@<SCITEGIC>MOL_PROPERTY
VM2 Rank
SciTegic.value.IntegerValue
17

@<SCITEGIC>MOL_PROPERTY
Conf_Id
SciTegic.value.IntegerValue
619

@<SCITEGIC>MOL_PROPERTY
Probability
SciTegic.value.DoubleValue
1.60

@<SCITEGIC>MOL_PROPERTY
Sum Probability
SciTegic.value.DoubleValue
58.91

@<SCITEGIC>MOL_PROPERTY
Delta G
SciTegic.value.DoubleValue
1.132

@<SCITEGIC>MOL_PROPERTY
G
SciTegic.value.DoubleValue
34.834

@<SCITEGIC>MOL_PROPERTY
E
SciTegic.value.DoubleValue
-2.802

@<SCITEGIC>MOL_PROPERTY
-TS
SciTegic.value.DoubleValue
37.636

@<SCITEGIC>MOL_PROPERTY
U+W
SciTegic.value.DoubleValue
-26.946

@<SCITEGIC>MOL_PROPERTY
U
SciTegic.value.DoubleValue
25.270

@<SCITEGIC>MOL_PROPERTY
W
SciTegic.value.DoubleValue
-52.217

@<SCITEGIC>MOL_PROPERTY
W(PB)
SciTegic.value.DoubleValue
-54.703

@<SCITEGIC>MOL_PROPERTY
W(SA)
SciTegic.value.DoubleValue
2.486

@<SCITEGIC>MOL_PROPERTY
Valence
SciTegic.value.DoubleValue
4.168

@<SCITEGIC>MOL_PROPERTY
Coulomb
SciTegic.value.DoubleValue
19.867

@<SCITEGIC>MOL_PROPERTY
VdW
SciTegic.value.DoubleValue
1.236

@<SCITEGIC>MOL_PROPERTY
VdW6
SciTegic.value.DoubleValue
-9.311

@<SCITEGIC>MOL_PROPERTY
VdW12
SciTegic.value.DoubleValue
10.547

@<SCITEGIC>MOL_PROPERTY
Bond
SciTegic.value.DoubleValue
0.263

@<SCITEGIC>MOL_PROPERTY
Angle
SciTegic.value.DoubleValue
1.298

@<SCITEGIC>MOL_PROPERTY
Pdih
SciTegic.value.DoubleValue
2.606

@<SCITEGIC>MOL_PROPERTY
Idih
SciTegic.value.DoubleValue
0.000

@<SCITEGIC>MOL_PROPERTY
Tether
SciTegic.value.DoubleValue
0.000

@<TRIPOS>MOLECULE
guest-s15_vm2.mol2 : vm2 ligand conformer 18
          29          28           1
SMALL
USER_CHARGES
 
@<TRIPOS>ATOM
       1    C1      20.912384   19.724181   19.676513 C.3        1 MOL1        -0.2426
       2    H1      20.887927   20.465356   18.867134 H          1 MOL1         0.0959
       3    H2      21.881929   19.811210   20.184097 H          1 MOL1         0.0959
       4    H3      20.852556   18.726621   19.222049 H          1 MOL1         0.0959
       5    C2      19.747501   19.955172   20.662167 C.3        1 MOL1        -0.1410
       6    H4      18.793758   19.896401   20.119231 H          1 MOL1         0.0948
       7    H5      19.815394   20.971400   21.075145 H          1 MOL1         0.0948
       8    C3      19.758350   18.923607   21.811687 C.3        1 MOL1        -0.1435
       9    H6      19.687309   17.909600   21.394643 H          1 MOL1         0.0948
      10    H7      20.719441   18.985865   22.338757 H          1 MOL1         0.0948
      11    C4      18.594335   19.157593   22.803976 C.3        1 MOL1        -0.1435
      12    H8      17.646349   19.160160   22.248394 H          1 MOL1         0.0948
      13    H9      18.685160   20.156443   23.251004 H          1 MOL1         0.0948
      14    C5      18.504418   18.081759   23.917070 C.3        1 MOL1        -0.1435
      15    H10     17.630060   18.294420   24.546714 H          1 MOL1         0.0948
      16    H11     18.305132   17.105128   23.454835 H          1 MOL1         0.0948
      17    C6      19.766440   17.960521   24.812418 C.3        1 MOL1        -0.1500
      18    H12     20.595708   17.562078   24.213943 H          1 MOL1         0.0948
      19    H13     19.577303   17.214734   25.595868 H          1 MOL1         0.0948
      20    C7      20.205674   19.288927   25.466878 C.3        1 MOL1         0.1162
      21    H14     20.391993   20.018351   24.672974 H          1 MOL1         0.0910
      22    C8      21.510791   19.092822   26.254000 C.3        1 MOL1        -0.2491
      23    H15     22.309929   18.725910   25.597885 H          1 MOL1         0.0959
      24    H16     21.847394   20.041479   26.690026 H          1 MOL1         0.0959
      25    H17     21.378428   18.369887   27.068707 H          1 MOL1         0.0959
      26    N1      19.136106   19.871420   26.349290 N.4        1 MOL1        -0.5987
      27    H18     18.271652   20.034224   25.825830 H          1 MOL1         0.3605
      28    H19     19.427593   20.767172   26.750793 H          1 MOL1         0.3605
      29    H20     18.912659   19.244430   27.126716 H          1 MOL1         0.3605
@<TRIPOS>BOND
    1     1     2    1
    2     1     3    1
    3     1     4    1
    4     1     5    1
    5     5     6    1
    6     5     7    1
    7     5     8    1
    8     8     9    1
    9     8    10    1
   10     8    11    1
   11    11    12    1
   12    11    13    1
   13    11    14    1
   14    14    15    1
   15    14    16    1
   16    14    17    1
   17    17    18    1
   18    17    19    1
   19    17    20    1
   20    20    21    1
   21    20    22    1
   22    22    23    1
   23    22    24    1
   24    22    25    1
   25    20    26    1
   26    26    27    1
   27    26    28    1
   28    26    29    1
@<TRIPOS>SUBSTRUCTURE
       1 MOL1            1 RESIDUE      1      MOL     
@<SCITEGIC>MOL_PROPERTY
VM2 Rank
SciTegic.value.IntegerValue
18

@<SCITEGIC>MOL_PROPERTY
Conf_Id
SciTegic.value.IntegerValue
229

@<SCITEGIC>MOL_PROPERTY
Probability
SciTegic.value.DoubleValue
1.59

@<SCITEGIC>MOL_PROPERTY
Sum Probability
SciTegic.value.DoubleValue
60.50

@<SCITEGIC>MOL_PROPERTY
Delta G
SciTegic.value.DoubleValue
1.135

@<SCITEGIC>MOL_PROPERTY
G
SciTegic.value.DoubleValue
34.837

@<SCITEGIC>MOL_PROPERTY
E
SciTegic.value.DoubleValue
-3.023

@<SCITEGIC>MOL_PROPERTY
-TS
SciTegic.value.DoubleValue
37.860

@<SCITEGIC>MOL_PROPERTY
U+W
SciTegic.value.DoubleValue
-27.167

@<SCITEGIC>MOL_PROPERTY
U
SciTegic.value.DoubleValue
25.092

@<SCITEGIC>MOL_PROPERTY
W
SciTegic.value.DoubleValue
-52.259

@<SCITEGIC>MOL_PROPERTY
W(PB)
SciTegic.value.DoubleValue
-54.739

@<SCITEGIC>MOL_PROPERTY
W(SA)
SciTegic.value.DoubleValue
2.480

@<SCITEGIC>MOL_PROPERTY
Valence
SciTegic.value.DoubleValue
3.930

@<SCITEGIC>MOL_PROPERTY
Coulomb
SciTegic.value.DoubleValue
20.383

@<SCITEGIC>MOL_PROPERTY
VdW
SciTegic.value.DoubleValue
0.779

@<SCITEGIC>MOL_PROPERTY
VdW6
SciTegic.value.DoubleValue
-9.977

@<SCITEGIC>MOL_PROPERTY
VdW12
SciTegic.value.DoubleValue
10.756

@<SCITEGIC>MOL_PROPERTY
Bond
SciTegic.value.DoubleValue
0.263

@<SCITEGIC>MOL_PROPERTY
Angle
SciTegic.value.DoubleValue
1.407

@<SCITEGIC>MOL_PROPERTY
Pdih
SciTegic.value.DoubleValue
2.259

@<SCITEGIC>MOL_PROPERTY
Idih
SciTegic.value.DoubleValue
0.000

@<SCITEGIC>MOL_PROPERTY
Tether
SciTegic.value.DoubleValue
0.000

@<TRIPOS>MOLECULE
guest-s15_vm2.mol2 : vm2 ligand conformer 19
          29          28           1
SMALL
USER_CHARGES
 
@<TRIPOS>ATOM
       1    C1      19.888328   20.239760   19.460485 C.3        1 MOL1        -0.2426
       2    H1      19.010952   20.884183   19.601750 H          1 MOL1         0.0959
       3    H2      20.725499   20.669406   20.024405 H          1 MOL1         0.0959
       4    H3      20.158097   20.268179   18.396837 H          1 MOL1         0.0959
       5    C2      19.589821   18.789686   19.903986 C.3        1 MOL1        -0.1410
       6    H4      20.490984   18.172751   19.781418 H          1 MOL1         0.0948
       7    H5      18.831506   18.363206   19.232548 H          1 MOL1         0.0948
       8    C3      19.078081   18.685031   21.360886 C.3        1 MOL1        -0.1435
       9    H6      18.165904   19.287125   21.473275 H          1 MOL1         0.0948
      10    H7      18.786741   17.643312   21.553811 H          1 MOL1         0.0948
      11    C4      20.124385   19.120628   22.414579 C.3        1 MOL1        -0.1435
      12    H8      20.372628   20.181291   22.277715 H          1 MOL1         0.0948
      13    H9      21.053151   18.552934   22.265265 H          1 MOL1         0.0948
      14    C5      19.611798   18.902130   23.856089 C.3        1 MOL1        -0.1435
      15    H10     18.681109   19.467545   23.996440 H          1 MOL1         0.0948
      16    H11     19.365615   17.840750   23.991095 H          1 MOL1         0.0948
      17    C6      20.662782   19.340763   24.908932 C.3        1 MOL1        -0.1500
      18    H12     20.934904   20.389512   24.731367 H          1 MOL1         0.0948
      19    H13     21.584296   18.761243   24.764913 H          1 MOL1         0.0948
      20    C7      20.210030   19.196427   26.381114 C.3        1 MOL1         0.1162
      21    H14     21.025640   19.566902   27.009843 H          1 MOL1         0.0910
      22    C8      19.955109   17.729006   26.767169 C.3        1 MOL1        -0.2491
      23    H15     19.770069   17.642845   27.844916 H          1 MOL1         0.0959
      24    H16     19.083798   17.317253   26.244217 H          1 MOL1         0.0959
      25    H17     20.826070   17.106073   26.528509 H          1 MOL1         0.0959
      26    N1      19.015666   20.052568   26.700761 N.4        1 MOL1        -0.5987
      27    H18     18.196406   19.762851   26.160926 H          1 MOL1         0.3605
      28    H19     19.192899   21.038518   26.488152 H          1 MOL1         0.3605
      29    H20     18.767312   19.992921   27.692438 H          1 MOL1         0.3605
@<TRIPOS>BOND
    1     1     2    1
    2     1     3    1
    3     1     4    1
    4     1     5    1
    5     5     6    1
    6     5     7    1
    7     5     8    1
    8     8     9    1
    9     8    10    1
   10     8    11    1
   11    11    12    1
   12    11    13    1
   13    11    14    1
   14    14    15    1
   15    14    16    1
   16    14    17    1
   17    17    18    1
   18    17    19    1
   19    17    20    1
   20    20    21    1
   21    20    22    1
   22    22    23    1
   23    22    24    1
   24    22    25    1
   25    20    26    1
   26    26    27    1
   27    26    28    1
   28    26    29    1
@<TRIPOS>SUBSTRUCTURE
       1 MOL1            1 RESIDUE      1      MOL     
@<SCITEGIC>MOL_PROPERTY
VM2 Rank
SciTegic.value.IntegerValue
19

@<SCITEGIC>MOL_PROPERTY
Conf_Id
SciTegic.value.IntegerValue
670

@<SCITEGIC>MOL_PROPERTY
Probability
SciTegic.value.DoubleValue
1.56

@<SCITEGIC>MOL_PROPERTY
Sum Probability
SciTegic.value.DoubleValue
62.06

@<SCITEGIC>MOL_PROPERTY
Delta G
SciTegic.value.DoubleValue
1.146

@<SCITEGIC>MOL_PROPERTY
G
SciTegic.value.DoubleValue
34.848

@<SCITEGIC>MOL_PROPERTY
E
SciTegic.value.DoubleValue
-2.793

@<SCITEGIC>MOL_PROPERTY
-TS
SciTegic.value.DoubleValue
37.641

@<SCITEGIC>MOL_PROPERTY
U+W
SciTegic.value.DoubleValue
-26.938

@<SCITEGIC>MOL_PROPERTY
U
SciTegic.value.DoubleValue
25.147

@<SCITEGIC>MOL_PROPERTY
W
SciTegic.value.DoubleValue
-52.084

@<SCITEGIC>MOL_PROPERTY
W(PB)
SciTegic.value.DoubleValue
-54.573

@<SCITEGIC>MOL_PROPERTY
W(SA)
SciTegic.value.DoubleValue
2.489

@<SCITEGIC>MOL_PROPERTY
Valence
SciTegic.value.DoubleValue
4.181

@<SCITEGIC>MOL_PROPERTY
Coulomb
SciTegic.value.DoubleValue
19.656

@<SCITEGIC>MOL_PROPERTY
VdW
SciTegic.value.DoubleValue
1.310

@<SCITEGIC>MOL_PROPERTY
VdW6
SciTegic.value.DoubleValue
-9.192

@<SCITEGIC>MOL_PROPERTY
VdW12
SciTegic.value.DoubleValue
10.501

@<SCITEGIC>MOL_PROPERTY
Bond
SciTegic.value.DoubleValue
0.259

@<SCITEGIC>MOL_PROPERTY
Angle
SciTegic.value.DoubleValue
1.449

@<SCITEGIC>MOL_PROPERTY
Pdih
SciTegic.value.DoubleValue
2.473

@<SCITEGIC>MOL_PROPERTY
Idih
SciTegic.value.DoubleValue
0.000

@<SCITEGIC>MOL_PROPERTY
Tether
SciTegic.value.DoubleValue
0.000

@<TRIPOS>MOLECULE
guest-s15_vm2.mol2 : vm2 ligand conformer 20
          29          28           1
SMALL
USER_CHARGES
 
@<TRIPOS>ATOM
       1    C1      20.498793   18.968722   19.363042 C.3        1 MOL1        -0.2426
       2    H1      21.394809   19.270562   19.919372 H          1 MOL1         0.0959
       3    H2      20.441373   17.872516   19.370867 H          1 MOL1         0.0959
       4    H3      20.632905   19.290536   18.322187 H          1 MOL1         0.0959
       5    C2      19.220035   19.596371   19.962507 C.3        1 MOL1        -0.1410
       6    H4      18.370748   19.366475   19.304013 H          1 MOL1         0.0948
       7    H5      19.314792   20.691207   19.971303 H          1 MOL1         0.0948
       8    C3      18.895076   19.087687   21.387645 C.3        1 MOL1        -0.1435
       9    H6      17.920135   19.494959   21.689121 H          1 MOL1         0.0948
      10    H7      18.781631   17.994967   21.369925 H          1 MOL1         0.0948
      11    C4      19.956522   19.485478   22.441135 C.3        1 MOL1        -0.1435
      12    H8      20.104214   20.574001   22.419377 H          1 MOL1         0.0948
      13    H9      20.921957   19.026882   22.190143 H          1 MOL1         0.0948
      14    C5      19.543444   19.048207   23.864711 C.3        1 MOL1        -0.1435
      15    H10     18.580010   19.509701   24.118360 H          1 MOL1         0.0948
      16    H11     19.390445   17.961036   23.873630 H          1 MOL1         0.0948
      17    C6      20.612885   19.442540   24.916481 C.3        1 MOL1        -0.1500
      18    H12     20.790854   20.524542   24.861220 H          1 MOL1         0.0948
      19    H13     21.568070   18.965958   24.659065 H          1 MOL1         0.0948
      20    C7      20.254889   19.080479   26.377260 C.3        1 MOL1         0.1162
      21    H14     21.072221   19.438975   27.010681 H          1 MOL1         0.0910
      22    C8      20.138111   17.560414   26.584874 C.3        1 MOL1        -0.2491
      23    H15     21.041035   17.047951   26.230348 H          1 MOL1         0.0959
      24    H16     20.020010   17.327045   27.650140 H          1 MOL1         0.0959
      25    H17     19.274550   17.143371   26.053324 H          1 MOL1         0.0959
      26    N1      19.016246   19.786102   26.856344 N.4        1 MOL1        -0.5987
      27    H18     18.193800   19.496266   26.321445 H          1 MOL1         0.3605
      28    H19     19.103227   20.802181   26.762895 H          1 MOL1         0.3605
      29    H20     18.828491   19.584185   27.842568 H          1 MOL1         0.3605
@<TRIPOS>BOND
    1     1     2    1
    2     1     3    1
    3     1     4    1
    4     1     5    1
    5     5     6    1
    6     5     7    1
    7     5     8    1
    8     8     9    1
    9     8    10    1
   10     8    11    1
   11    11    12    1
   12    11    13    1
   13    11    14    1
   14    14    15    1
   15    14    16    1
   16    14    17    1
   17    17    18    1
   18    17    19    1
   19    17    20    1
   20    20    21    1
   21    20    22    1
   22    22    23    1
   23    22    24    1
   24    22    25    1
   25    20    26    1
   26    26    27    1
   27    26    28    1
   28    26    29    1
@<TRIPOS>SUBSTRUCTURE
       1 MOL1            1 RESIDUE      1      MOL     
@<SCITEGIC>MOL_PROPERTY
VM2 Rank
SciTegic.value.IntegerValue
20

@<SCITEGIC>MOL_PROPERTY
Conf_Id
SciTegic.value.IntegerValue
537

@<SCITEGIC>MOL_PROPERTY
Probability
SciTegic.value.DoubleValue
1.55

@<SCITEGIC>MOL_PROPERTY
Sum Probability
SciTegic.value.DoubleValue
63.61

@<SCITEGIC>MOL_PROPERTY
Delta G
SciTegic.value.DoubleValue
1.149

@<SCITEGIC>MOL_PROPERTY
G
SciTegic.value.DoubleValue
34.851

@<SCITEGIC>MOL_PROPERTY
E
SciTegic.value.DoubleValue
-2.789

@<SCITEGIC>MOL_PROPERTY
-TS
SciTegic.value.DoubleValue
37.641

@<SCITEGIC>MOL_PROPERTY
U+W
SciTegic.value.DoubleValue
-26.934

@<SCITEGIC>MOL_PROPERTY
U
SciTegic.value.DoubleValue
25.121

@<SCITEGIC>MOL_PROPERTY
W
SciTegic.value.DoubleValue
-52.055

@<SCITEGIC>MOL_PROPERTY
W(PB)
SciTegic.value.DoubleValue
-54.568

@<SCITEGIC>MOL_PROPERTY
W(SA)
SciTegic.value.DoubleValue
2.513

@<SCITEGIC>MOL_PROPERTY
Valence
SciTegic.value.DoubleValue
4.180

@<SCITEGIC>MOL_PROPERTY
Coulomb
SciTegic.value.DoubleValue
19.632

@<SCITEGIC>MOL_PROPERTY
VdW
SciTegic.value.DoubleValue
1.309

@<SCITEGIC>MOL_PROPERTY
VdW6
SciTegic.value.DoubleValue
-9.192

@<SCITEGIC>MOL_PROPERTY
VdW12
SciTegic.value.DoubleValue
10.501

@<SCITEGIC>MOL_PROPERTY
Bond
SciTegic.value.DoubleValue
0.259

@<SCITEGIC>MOL_PROPERTY
Angle
SciTegic.value.DoubleValue
1.449

@<SCITEGIC>MOL_PROPERTY
Pdih
SciTegic.value.DoubleValue
2.473

@<SCITEGIC>MOL_PROPERTY
Idih
SciTegic.value.DoubleValue
0.000

@<SCITEGIC>MOL_PROPERTY
Tether
SciTegic.value.DoubleValue
0.000

@<TRIPOS>MOLECULE
guest-s15_vm2.mol2 : vm2 ligand conformer 21
          29          28           1
SMALL
USER_CHARGES
 
@<TRIPOS>ATOM
       1    C1      19.117167   20.236345   19.240679 C.3        1 MOL1        -0.2426
       2    H1      18.161985   20.609626   19.632504 H          1 MOL1         0.0959
       3    H2      19.839811   21.062646   19.256784 H          1 MOL1         0.0959
       4    H3      18.961309   19.945204   18.193783 H          1 MOL1         0.0959
       5    C2      19.626464   19.038079   20.069379 C.3        1 MOL1        -0.1410
       6    H4      20.563721   18.665568   19.632733 H          1 MOL1         0.0948
       7    H5      18.899159   18.216426   20.007571 H          1 MOL1         0.0948
       8    C3      19.855210   19.421287   21.548251 C.3        1 MOL1        -0.1435
       9    H6      20.584635   20.241003   21.604719 H          1 MOL1         0.0948
      10    H7      18.914512   19.800702   21.967524 H          1 MOL1         0.0948
      11    C4      20.361830   18.218628   22.380550 C.3        1 MOL1        -0.1435
      12    H8      21.254831   17.801673   21.894641 H          1 MOL1         0.0948
      13    H9      19.607652   17.419569   22.375964 H          1 MOL1         0.0948
      14    C5      20.726314   18.580452   23.841746 C.3        1 MOL1        -0.1435
      15    H10     21.210815   17.705082   24.292699 H          1 MOL1         0.0948
      16    H11     21.474536   19.385087   23.845582 H          1 MOL1         0.0948
      17    C6      19.503940   18.997724   24.700492 C.3        1 MOL1        -0.1500
      18    H12     18.761035   18.189164   24.705641 H          1 MOL1         0.0948
      19    H13     19.018885   19.863999   24.234936 H          1 MOL1         0.0948
      20    C7      19.865853   19.380058   26.154245 C.3        1 MOL1         0.1162
      21    H14     20.650047   20.142771   26.123666 H          1 MOL1         0.0910
      22    C8      20.385909   18.177052   26.961801 C.3        1 MOL1        -0.2491
      23    H15     19.658529   17.355696   26.963197 H          1 MOL1         0.0959
      24    H16     21.330584   17.799605   26.554214 H          1 MOL1         0.0959
      25    H17     20.575724   18.464426   28.003318 H          1 MOL1         0.0959
      26    N1      18.693313   20.006375   26.856856 N.4        1 MOL1        -0.5987
      27    H18     18.356751   20.837422   26.361936 H          1 MOL1         0.3605
      28    H19     18.938942   20.296997   27.807614 H          1 MOL1         0.3605
      29    H20     17.908844   19.352924   26.930344 H          1 MOL1         0.3605
@<TRIPOS>BOND
    1     1     2    1
    2     1     3    1
    3     1     4    1
    4     1     5    1
    5     5     6    1
    6     5     7    1
    7     5     8    1
    8     8     9    1
    9     8    10    1
   10     8    11    1
   11    11    12    1
   12    11    13    1
   13    11    14    1
   14    14    15    1
   15    14    16    1
   16    14    17    1
   17    17    18    1
   18    17    19    1
   19    17    20    1
   20    20    21    1
   21    20    22    1
   22    22    23    1
   23    22    24    1
   24    22    25    1
   25    20    26    1
   26    26    27    1
   27    26    28    1
   28    26    29    1
@<TRIPOS>SUBSTRUCTURE
       1 MOL1            1 RESIDUE      1      MOL     
@<SCITEGIC>MOL_PROPERTY
VM2 Rank
SciTegic.value.IntegerValue
21

@<SCITEGIC>MOL_PROPERTY
Conf_Id
SciTegic.value.IntegerValue
666

@<SCITEGIC>MOL_PROPERTY
Probability
SciTegic.value.DoubleValue
1.55

@<SCITEGIC>MOL_PROPERTY
Sum Probability
SciTegic.value.DoubleValue
65.16

@<SCITEGIC>MOL_PROPERTY
Delta G
SciTegic.value.DoubleValue
1.150

@<SCITEGIC>MOL_PROPERTY
G
SciTegic.value.DoubleValue
34.852

@<SCITEGIC>MOL_PROPERTY
E
SciTegic.value.DoubleValue
-2.569

@<SCITEGIC>MOL_PROPERTY
-TS
SciTegic.value.DoubleValue
37.421

@<SCITEGIC>MOL_PROPERTY
U+W
SciTegic.value.DoubleValue
-26.713

@<SCITEGIC>MOL_PROPERTY
U
SciTegic.value.DoubleValue
25.442

@<SCITEGIC>MOL_PROPERTY
W
SciTegic.value.DoubleValue
-52.155

@<SCITEGIC>MOL_PROPERTY
W(PB)
SciTegic.value.DoubleValue
-54.677

@<SCITEGIC>MOL_PROPERTY
W(SA)
SciTegic.value.DoubleValue
2.522

@<SCITEGIC>MOL_PROPERTY
Valence
SciTegic.value.DoubleValue
4.343

@<SCITEGIC>MOL_PROPERTY
Coulomb
SciTegic.value.DoubleValue
19.740

@<SCITEGIC>MOL_PROPERTY
VdW
SciTegic.value.DoubleValue
1.360

@<SCITEGIC>MOL_PROPERTY
VdW6
SciTegic.value.DoubleValue
-8.739

@<SCITEGIC>MOL_PROPERTY
VdW12
SciTegic.value.DoubleValue
10.099

@<SCITEGIC>MOL_PROPERTY
Bond
SciTegic.value.DoubleValue
0.251

@<SCITEGIC>MOL_PROPERTY
Angle
SciTegic.value.DoubleValue
1.483

@<SCITEGIC>MOL_PROPERTY
Pdih
SciTegic.value.DoubleValue
2.608

@<SCITEGIC>MOL_PROPERTY
Idih
SciTegic.value.DoubleValue
0.000

@<SCITEGIC>MOL_PROPERTY
Tether
SciTegic.value.DoubleValue
0.000

@<TRIPOS>MOLECULE
guest-s15_vm2.mol2 : vm2 ligand conformer 22
          29          28           1
SMALL
USER_CHARGES
 
@<TRIPOS>ATOM
       1    C1      18.734420   19.024064   19.316756 C.3        1 MOL1        -0.2426
       2    H1      18.006744   19.841648   19.402142 H          1 MOL1         0.0959
       3    H2      19.488073   19.313233   18.572698 H          1 MOL1         0.0959
       4    H3      18.206000   18.140804   18.935103 H          1 MOL1         0.0959
       5    C2      19.389029   18.720145   20.680981 C.3        1 MOL1        -0.1410
       6    H4      20.089133   17.880383   20.569955 H          1 MOL1         0.0948
       7    H5      18.610811   18.395913   21.384419 H          1 MOL1         0.0948
       8    C3      20.136661   19.953077   21.241384 C.3        1 MOL1        -0.1435
       9    H6      20.852144   20.309136   20.487323 H          1 MOL1         0.0948
      10    H7      19.425925   20.775083   21.403744 H          1 MOL1         0.0948
      11    C4      20.908934   19.667588   22.552840 C.3        1 MOL1        -0.1435
      12    H8      21.499912   20.558088   22.807903 H          1 MOL1         0.0948
      13    H9      21.630574   18.856196   22.385040 H          1 MOL1         0.0948
      14    C5      19.991069   19.312217   23.747168 C.3        1 MOL1        -0.1435
      15    H10     19.237813   20.101471   23.869797 H          1 MOL1         0.0948
      16    H11     19.451421   18.382721   23.528839 H          1 MOL1         0.0948
      17    C6      20.802316   19.145690   25.058554 C.3        1 MOL1        -0.1500
      18    H12     21.373493   20.063850   25.248703 H          1 MOL1         0.0948
      19    H13     21.546485   18.349207   24.925852 H          1 MOL1         0.0948
      20    C7      19.954870   18.830175   26.313774 C.3        1 MOL1         0.1162
      21    H14     20.642153   18.771637   27.163472 H          1 MOL1         0.0910
      22    C8      19.237044   17.473785   26.202417 C.3        1 MOL1        -0.2491
      23    H15     18.759425   17.213732   27.155020 H          1 MOL1         0.0959
      24    H16     18.458061   17.488754   25.430961 H          1 MOL1         0.0959
      25    H17     19.948351   16.675044   25.958215 H          1 MOL1         0.0959
      26    N1      18.981656   19.929258   26.640126 N.4        1 MOL1        -0.5987
      27    H18     18.288490   20.043919   25.896551 H          1 MOL1         0.3605
      28    H19     19.457299   20.828156   26.760405 H          1 MOL1         0.3605
      29    H20     18.473174   19.733381   27.507154 H          1 MOL1         0.3605
@<TRIPOS>BOND
    1     1     2    1
    2     1     3    1
    3     1     4    1
    4     1     5    1
    5     5     6    1
    6     5     7    1
    7     5     8    1
    8     8     9    1
    9     8    10    1
   10     8    11    1
   11    11    12    1
   12    11    13    1
   13    11    14    1
   14    14    15    1
   15    14    16    1
   16    14    17    1
   17    17    18    1
   18    17    19    1
   19    17    20    1
   20    20    21    1
   21    20    22    1
   22    22    23    1
   23    22    24    1
   24    22    25    1
   25    20    26    1
   26    26    27    1
   27    26    28    1
   28    26    29    1
@<TRIPOS>SUBSTRUCTURE
       1 MOL1            1 RESIDUE      1      MOL     
@<SCITEGIC>MOL_PROPERTY
VM2 Rank
SciTegic.value.IntegerValue
22

@<SCITEGIC>MOL_PROPERTY
Conf_Id
SciTegic.value.IntegerValue
1000

@<SCITEGIC>MOL_PROPERTY
Probability
SciTegic.value.DoubleValue
1.49

@<SCITEGIC>MOL_PROPERTY
Sum Probability
SciTegic.value.DoubleValue
66.65

@<SCITEGIC>MOL_PROPERTY
Delta G
SciTegic.value.DoubleValue
1.175

@<SCITEGIC>MOL_PROPERTY
G
SciTegic.value.DoubleValue
34.877

@<SCITEGIC>MOL_PROPERTY
E
SciTegic.value.DoubleValue
-2.752

@<SCITEGIC>MOL_PROPERTY
-TS
SciTegic.value.DoubleValue
37.629

@<SCITEGIC>MOL_PROPERTY
U+W
SciTegic.value.DoubleValue
-26.897

@<SCITEGIC>MOL_PROPERTY
U
SciTegic.value.DoubleValue
25.354

@<SCITEGIC>MOL_PROPERTY
W
SciTegic.value.DoubleValue
-52.250

@<SCITEGIC>MOL_PROPERTY
W(PB)
SciTegic.value.DoubleValue
-54.739

@<SCITEGIC>MOL_PROPERTY
W(SA)
SciTegic.value.DoubleValue
2.488

@<SCITEGIC>MOL_PROPERTY
Valence
SciTegic.value.DoubleValue
4.221

@<SCITEGIC>MOL_PROPERTY
Coulomb
SciTegic.value.DoubleValue
19.855

@<SCITEGIC>MOL_PROPERTY
VdW
SciTegic.value.DoubleValue
1.278

@<SCITEGIC>MOL_PROPERTY
VdW6
SciTegic.value.DoubleValue
-9.276

@<SCITEGIC>MOL_PROPERTY
VdW12
SciTegic.value.DoubleValue
10.554

@<SCITEGIC>MOL_PROPERTY
Bond
SciTegic.value.DoubleValue
0.264

@<SCITEGIC>MOL_PROPERTY
Angle
SciTegic.value.DoubleValue
1.471

@<SCITEGIC>MOL_PROPERTY
Pdih
SciTegic.value.DoubleValue
2.486

@<SCITEGIC>MOL_PROPERTY
Idih
SciTegic.value.DoubleValue
0.000

@<SCITEGIC>MOL_PROPERTY
Tether
SciTegic.value.DoubleValue
0.000

@<TRIPOS>MOLECULE
guest-s15_vm2.mol2 : vm2 ligand conformer 23
          29          28           1
SMALL
USER_CHARGES
 
@<TRIPOS>ATOM
       1    C1      18.641113   19.458456   19.360235 C.3        1 MOL1        -0.2426
       2    H1      19.424509   19.557423   18.597524 H          1 MOL1         0.0959
       3    H2      18.234091   18.440497   19.302443 H          1 MOL1         0.0959
       4    H3      17.834613   20.158957   19.107469 H          1 MOL1         0.0959
       5    C2      19.197497   19.753593   20.769247 C.3        1 MOL1        -0.1410
       6    H4      18.377954   19.685031   21.496697 H          1 MOL1         0.0948
       7    H5      19.570324   20.786757   20.804540 H          1 MOL1         0.0948
       8    C3      20.333505   18.774909   21.149633 C.3        1 MOL1        -0.1435
       9    H6      19.946234   17.746847   21.167507 H          1 MOL1         0.0948
      10    H7      21.103295   18.800372   20.366003 H          1 MOL1         0.0948
      11    C4      21.004879   19.100602   22.506447 C.3        1 MOL1        -0.1435
      12    H8      21.407001   20.122823   22.481155 H          1 MOL1         0.0948
      13    H9      21.867834   18.432810   22.635618 H          1 MOL1         0.0948
      14    C5      20.057948   18.940773   23.720078 C.3        1 MOL1        -0.1435
      15    H10     19.231921   19.657873   23.639316 H          1 MOL1         0.0948
      16    H11     19.616115   17.935996   23.698645 H          1 MOL1         0.0948
      17    C6      20.807897   19.161697   25.059597 C.3        1 MOL1        -0.1500
      18    H12     21.290743   20.147639   25.043760 H          1 MOL1         0.0948
      19    H13     21.620935   18.428682   25.145667 H          1 MOL1         0.0948
      20    C7      19.922726   19.071304   26.325143 C.3        1 MOL1         0.1162
      21    H14     20.566944   19.270623   27.187132 H          1 MOL1         0.0910
      22    C8      19.319031   17.668250   26.510322 C.3        1 MOL1        -0.2491
      23    H15     18.812078   17.594067   27.480217 H          1 MOL1         0.0959
      24    H16     18.584265   17.436449   25.730177 H          1 MOL1         0.0959
      25    H17     20.102169   16.900378   26.484871 H          1 MOL1         0.0959
      26    N1      18.851404   20.126416   26.353298 N.4        1 MOL1        -0.5987
      27    H18     18.190335   20.004802   25.582162 H          1 MOL1         0.3605
      28    H19     19.248820   21.066942   26.274532 H          1 MOL1         0.3605
      29    H20     18.315987   20.092341   27.225568 H          1 MOL1         0.3605
@<TRIPOS>BOND
    1     1     2    1
    2     1     3    1
    3     1     4    1
    4     1     5    1
    5     5     6    1
    6     5     7    1
    7     5     8    1
    8     8     9    1
    9     8    10    1
   10     8    11    1
   11    11    12    1
   12    11    13    1
   13    11    14    1
   14    14    15    1
   15    14    16    1
   16    14    17    1
   17    17    18    1
   18    17    19    1
   19    17    20    1
   20    20    21    1
   21    20    22    1
   22    22    23    1
   23    22    24    1
   24    22    25    1
   25    20    26    1
   26    26    27    1
   27    26    28    1
   28    26    29    1
@<TRIPOS>SUBSTRUCTURE
       1 MOL1            1 RESIDUE      1      MOL     
@<SCITEGIC>MOL_PROPERTY
VM2 Rank
SciTegic.value.IntegerValue
23

@<SCITEGIC>MOL_PROPERTY
Conf_Id
SciTegic.value.IntegerValue
906

@<SCITEGIC>MOL_PROPERTY
Probability
SciTegic.value.DoubleValue
1.40

@<SCITEGIC>MOL_PROPERTY
Sum Probability
SciTegic.value.DoubleValue
68.04

@<SCITEGIC>MOL_PROPERTY
Delta G
SciTegic.value.DoubleValue
1.212

@<SCITEGIC>MOL_PROPERTY
G
SciTegic.value.DoubleValue
34.914

@<SCITEGIC>MOL_PROPERTY
E
SciTegic.value.DoubleValue
-2.714

@<SCITEGIC>MOL_PROPERTY
-TS
SciTegic.value.DoubleValue
37.628

@<SCITEGIC>MOL_PROPERTY
U+W
SciTegic.value.DoubleValue
-26.859

@<SCITEGIC>MOL_PROPERTY
U
SciTegic.value.DoubleValue
25.544

@<SCITEGIC>MOL_PROPERTY
W
SciTegic.value.DoubleValue
-52.404

@<SCITEGIC>MOL_PROPERTY
W(PB)
SciTegic.value.DoubleValue
-54.894

@<SCITEGIC>MOL_PROPERTY
W(SA)
SciTegic.value.DoubleValue
2.491

@<SCITEGIC>MOL_PROPERTY
Valence
SciTegic.value.DoubleValue
4.218

@<SCITEGIC>MOL_PROPERTY
Coulomb
SciTegic.value.DoubleValue
20.055

@<SCITEGIC>MOL_PROPERTY
VdW
SciTegic.value.DoubleValue
1.271

@<SCITEGIC>MOL_PROPERTY
VdW6
SciTegic.value.DoubleValue
-9.272

@<SCITEGIC>MOL_PROPERTY
VdW12
SciTegic.value.DoubleValue
10.543

@<SCITEGIC>MOL_PROPERTY
Bond
SciTegic.value.DoubleValue
0.264

@<SCITEGIC>MOL_PROPERTY
Angle
SciTegic.value.DoubleValue
1.469

@<SCITEGIC>MOL_PROPERTY
Pdih
SciTegic.value.DoubleValue
2.486

@<SCITEGIC>MOL_PROPERTY
Idih
SciTegic.value.DoubleValue
0.000

@<SCITEGIC>MOL_PROPERTY
Tether
SciTegic.value.DoubleValue
0.000

@<TRIPOS>MOLECULE
guest-s15_vm2.mol2 : vm2 ligand conformer 24
          29          28           1
SMALL
USER_CHARGES
 
@<TRIPOS>ATOM
       1    C1      19.744589   20.359259   19.249945 C.3        1 MOL1        -0.2426
       2    H1      19.870666   20.119930   18.186053 H          1 MOL1         0.0959
       3    H2      18.784925   20.879422   19.367066 H          1 MOL1         0.0959
       4    H3      20.546406   21.052063   19.536908 H          1 MOL1         0.0959
       5    C2      19.787688   19.075768   20.105955 C.3        1 MOL1        -0.1410
       6    H4      20.744766   18.560643   19.943018 H          1 MOL1         0.0948
       7    H5      18.997052   18.389029   19.772562 H          1 MOL1         0.0948
       8    C3      19.611537   19.384634   21.609194 C.3        1 MOL1        -0.1435
       9    H6      20.401033   20.078412   21.925728 H          1 MOL1         0.0948
      10    H7      18.652634   19.897195   21.767125 H          1 MOL1         0.0948
      11    C4      19.659186   18.098310   22.468561 C.3        1 MOL1        -0.1435
      12    H8      20.639062   17.613767   22.357540 H          1 MOL1         0.0948
      13    H9      18.917628   17.384957   22.083077 H          1 MOL1         0.0948
      14    C5      19.367622   18.342424   23.969725 C.3        1 MOL1        -0.1435
      15    H10     18.384251   18.819833   24.073217 H          1 MOL1         0.0948
      16    H11     19.291073   17.364065   24.461182 H          1 MOL1         0.0948
      17    C6      20.454862   19.196420   24.677914 C.3        1 MOL1        -0.1500
      18    H12     20.509033   20.186151   24.208627 H          1 MOL1         0.0948
      19    H13     21.438483   18.733366   24.524198 H          1 MOL1         0.0948
      20    C7      20.233616   19.402918   26.195123 C.3        1 MOL1         0.1162
      21    H14     21.031021   20.061982   26.552260 H          1 MOL1         0.0910
      22    C8      20.335370   18.084776   26.982454 C.3        1 MOL1        -0.2491
      23    H15     19.503725   17.408336   26.752859 H          1 MOL1         0.0959
      24    H16     21.274630   17.565729   26.754539 H          1 MOL1         0.0959
      25    H17     20.317831   18.281209   28.061485 H          1 MOL1         0.0959
      26    N1      18.941530   20.111490   26.495128 N.4        1 MOL1        -0.5987
      27    H18     18.136053   19.553475   26.201157 H          1 MOL1         0.3605
      28    H19     18.886404   21.012395   26.011425 H          1 MOL1         0.3605
      29    H20     18.839389   20.294920   27.497405 H          1 MOL1         0.3605
@<TRIPOS>BOND
    1     1     2    1
    2     1     3    1
    3     1     4    1
    4     1     5    1
    5     5     6    1
    6     5     7    1
    7     5     8    1
    8     8     9    1
    9     8    10    1
   10     8    11    1
   11    11    12    1
   12    11    13    1
   13    11    14    1
   14    14    15    1
   15    14    16    1
   16    14    17    1
   17    17    18    1
   18    17    19    1
   19    17    20    1
   20    20    21    1
   21    20    22    1
   22    22    23    1
   23    22    24    1
   24    22    25    1
   25    20    26    1
   26    26    27    1
   27    26    28    1
   28    26    29    1
@<TRIPOS>SUBSTRUCTURE
       1 MOL1            1 RESIDUE      1      MOL     
@<SCITEGIC>MOL_PROPERTY
VM2 Rank
SciTegic.value.IntegerValue
24

@<SCITEGIC>MOL_PROPERTY
Conf_Id
SciTegic.value.IntegerValue
302

@<SCITEGIC>MOL_PROPERTY
Probability
SciTegic.value.DoubleValue
1.39

@<SCITEGIC>MOL_PROPERTY
Sum Probability
SciTegic.value.DoubleValue
69.44

@<SCITEGIC>MOL_PROPERTY
Delta G
SciTegic.value.DoubleValue
1.213

@<SCITEGIC>MOL_PROPERTY
G
SciTegic.value.DoubleValue
34.915

@<SCITEGIC>MOL_PROPERTY
E
SciTegic.value.DoubleValue
-2.676

@<SCITEGIC>MOL_PROPERTY
-TS
SciTegic.value.DoubleValue
37.591

@<SCITEGIC>MOL_PROPERTY
U+W
SciTegic.value.DoubleValue
-26.820

@<SCITEGIC>MOL_PROPERTY
U
SciTegic.value.DoubleValue
25.474

@<SCITEGIC>MOL_PROPERTY
W
SciTegic.value.DoubleValue
-52.294

@<SCITEGIC>MOL_PROPERTY
W(PB)
SciTegic.value.DoubleValue
-54.793

@<SCITEGIC>MOL_PROPERTY
W(SA)
SciTegic.value.DoubleValue
2.500

@<SCITEGIC>MOL_PROPERTY
Valence
SciTegic.value.DoubleValue
4.286

@<SCITEGIC>MOL_PROPERTY
Coulomb
SciTegic.value.DoubleValue
19.883

@<SCITEGIC>MOL_PROPERTY
VdW
SciTegic.value.DoubleValue
1.305

@<SCITEGIC>MOL_PROPERTY
VdW6
SciTegic.value.DoubleValue
-9.235

@<SCITEGIC>MOL_PROPERTY
VdW12
SciTegic.value.DoubleValue
10.540

@<SCITEGIC>MOL_PROPERTY
Bond
SciTegic.value.DoubleValue
0.276

@<SCITEGIC>MOL_PROPERTY
Angle
SciTegic.value.DoubleValue
1.498

@<SCITEGIC>MOL_PROPERTY
Pdih
SciTegic.value.DoubleValue
2.512

@<SCITEGIC>MOL_PROPERTY
Idih
SciTegic.value.DoubleValue
0.000

@<SCITEGIC>MOL_PROPERTY
Tether
SciTegic.value.DoubleValue
0.000

@<TRIPOS>MOLECULE
guest-s15_vm2.mol2 : vm2 ligand conformer 25
          29          28           1
SMALL
USER_CHARGES
 
@<TRIPOS>ATOM
       1    C1      20.914175   19.797009   20.085735 C.3        1 MOL1        -0.2426
       2    H1      21.538153   19.525438   20.946327 H          1 MOL1         0.0959
       3    H2      20.960107   18.979092   19.355086 H          1 MOL1         0.0959
       4    H3      21.359118   20.687168   19.622619 H          1 MOL1         0.0959
       5    C2      19.455796   20.079824   20.511359 C.3        1 MOL1        -0.1410
       6    H4      18.901458   20.460939   19.642401 H          1 MOL1         0.0948
       7    H5      19.436859   20.886413   21.256367 H          1 MOL1         0.0948
       8    C3      18.719218   18.829531   21.056038 C.3        1 MOL1        -0.1435
       9    H6      17.686264   19.108373   21.305744 H          1 MOL1         0.0948
      10    H7      18.643207   18.084532   20.252112 H          1 MOL1         0.0948
      11    C4      19.373599   18.160853   22.292488 C.3        1 MOL1        -0.1435
      12    H8      20.366464   17.774345   22.026866 H          1 MOL1         0.0948
      13    H9      18.772332   17.283826   22.569047 H          1 MOL1         0.0948
      14    C5      19.486379   19.100497   23.516663 C.3        1 MOL1        -0.1435
      15    H10     20.147990   19.944028   23.278978 H          1 MOL1         0.0948
      16    H11     18.496704   19.520284   23.739951 H          1 MOL1         0.0948
      17    C6      20.040211   18.358648   24.757240 C.3        1 MOL1        -0.1500
      18    H12     21.001878   17.897916   24.494514 H          1 MOL1         0.0948
      19    H13     19.364154   17.538258   25.032662 H          1 MOL1         0.0948
      20    C7      20.249198   19.289073   25.971478 C.3        1 MOL1         0.1162
      21    H14     20.905458   20.109773   25.665836 H          1 MOL1         0.0910
      22    C8      20.931910   18.526420   27.117995 C.3        1 MOL1        -0.2491
      23    H15     21.116441   19.191205   27.970880 H          1 MOL1         0.0959
      24    H16     20.310920   17.690580   27.463956 H          1 MOL1         0.0959
      25    H17     21.899726   18.122485   26.795620 H          1 MOL1         0.0959
      26    N1      18.965513   19.914147   26.445002 N.4        1 MOL1        -0.5987
      27    H18     18.521017   20.461994   25.703416 H          1 MOL1         0.3605
      28    H19     19.125535   20.543124   27.237106 H          1 MOL1         0.3605
      29    H20     18.294504   19.203308   26.748303 H          1 MOL1         0.3605
@<TRIPOS>BOND
    1     1     2    1
    2     1     3    1
    3     1     4    1
    4     1     5    1
    5     5     6    1
    6     5     7    1
    7     5     8    1
    8     8     9    1
    9     8    10    1
   10     8    11    1
   11    11    12    1
   12    11    13    1
   13    11    14    1
   14    14    15    1
   15    14    16    1
   16    14    17    1
   17    17    18    1
   18    17    19    1
   19    17    20    1
   20    20    21    1
   21    20    22    1
   22    22    23    1
   23    22    24    1
   24    22    25    1
   25    20    26    1
   26    26    27    1
   27    26    28    1
   28    26    29    1
@<TRIPOS>SUBSTRUCTURE
       1 MOL1            1 RESIDUE      1      MOL     
@<SCITEGIC>MOL_PROPERTY
VM2 Rank
SciTegic.value.IntegerValue
25

@<SCITEGIC>MOL_PROPERTY
Conf_Id
SciTegic.value.IntegerValue
1259

@<SCITEGIC>MOL_PROPERTY
Probability
SciTegic.value.DoubleValue
1.32

@<SCITEGIC>MOL_PROPERTY
Sum Probability
SciTegic.value.DoubleValue
70.76

@<SCITEGIC>MOL_PROPERTY
Delta G
SciTegic.value.DoubleValue
1.245

@<SCITEGIC>MOL_PROPERTY
G
SciTegic.value.DoubleValue
34.947

@<SCITEGIC>MOL_PROPERTY
E
SciTegic.value.DoubleValue
-2.872

@<SCITEGIC>MOL_PROPERTY
-TS
SciTegic.value.DoubleValue
37.819

@<SCITEGIC>MOL_PROPERTY
U+W
SciTegic.value.DoubleValue
-27.016

@<SCITEGIC>MOL_PROPERTY
U
SciTegic.value.DoubleValue
25.212

@<SCITEGIC>MOL_PROPERTY
W
SciTegic.value.DoubleValue
-52.228

@<SCITEGIC>MOL_PROPERTY
W(PB)
SciTegic.value.DoubleValue
-54.719

@<SCITEGIC>MOL_PROPERTY
W(SA)
SciTegic.value.DoubleValue
2.490

@<SCITEGIC>MOL_PROPERTY
Valence
SciTegic.value.DoubleValue
4.125

@<SCITEGIC>MOL_PROPERTY
Coulomb
SciTegic.value.DoubleValue
19.951

@<SCITEGIC>MOL_PROPERTY
VdW
SciTegic.value.DoubleValue
1.137

@<SCITEGIC>MOL_PROPERTY
VdW6
SciTegic.value.DoubleValue
-9.556

@<SCITEGIC>MOL_PROPERTY
VdW12
SciTegic.value.DoubleValue
10.693

@<SCITEGIC>MOL_PROPERTY
Bond
SciTegic.value.DoubleValue
0.266

@<SCITEGIC>MOL_PROPERTY
Angle
SciTegic.value.DoubleValue
1.520

@<SCITEGIC>MOL_PROPERTY
Pdih
SciTegic.value.DoubleValue
2.339

@<SCITEGIC>MOL_PROPERTY
Idih
SciTegic.value.DoubleValue
0.000

@<SCITEGIC>MOL_PROPERTY
Tether
SciTegic.value.DoubleValue
0.000

@<TRIPOS>MOLECULE
guest-s15_vm2.mol2 : vm2 ligand conformer 26
          29          28           1
SMALL
USER_CHARGES
 
@<TRIPOS>ATOM
       1    C1      20.843616   19.476688   19.758694 C.3        1 MOL1        -0.2426
       2    H1      21.620146   19.369914   20.526205 H          1 MOL1         0.0959
       3    H2      20.628189   18.482611   19.345861 H          1 MOL1         0.0959
       4    H3      21.260455   20.092498   18.951261 H          1 MOL1         0.0959
       5    C2      19.565181   20.129364   20.331493 C.3        1 MOL1        -0.1410
       6    H4      18.867679   20.326442   19.505416 H          1 MOL1         0.0948
       7    H5      19.812608   21.108351   20.765176 H          1 MOL1         0.0948
       8    C3      18.848574   19.254642   21.388257 C.3        1 MOL1        -0.1435
       9    H6      17.901276   19.741061   21.658965 H          1 MOL1         0.0948
      10    H7      18.582562   18.286072   20.942895 H          1 MOL1         0.0948
      11    C4      19.684903   19.027948   22.670196 C.3        1 MOL1        -0.1435
      12    H8      19.997317   20.000750   23.072079 H          1 MOL1         0.0948
      13    H9      20.600373   18.473812   22.424789 H          1 MOL1         0.0948
      14    C5      18.889179   18.241966   23.739714 C.3        1 MOL1        -0.1435
      15    H10     17.984865   18.800164   24.016445 H          1 MOL1         0.0948
      16    H11     18.539902   17.295932   23.303385 H          1 MOL1         0.0948
      17    C6      19.722475   17.920229   25.006683 C.3        1 MOL1        -0.1500
      18    H12     20.564343   17.275488   24.721139 H          1 MOL1         0.0948
      19    H13     19.107033   17.331478   25.699842 H          1 MOL1         0.0948
      20    C7      20.268800   19.165770   25.739912 C.3        1 MOL1         0.1162
      21    H14     20.895714   19.729271   25.042637 H          1 MOL1         0.0910
      22    C8      21.140025   18.744442   26.933717 C.3        1 MOL1        -0.2491
      23    H15     20.556937   18.178078   27.670709 H          1 MOL1         0.0959
      24    H16     21.976029   18.115548   26.603060 H          1 MOL1         0.0959
      25    H17     21.562940   19.623707   27.435138 H          1 MOL1         0.0959
      26    N1      19.173247   20.094951   26.185333 N.4        1 MOL1        -0.5987
      27    H18     18.543167   19.636747   26.849055 H          1 MOL1         0.3605
      28    H19     18.609411   20.410875   25.391464 H          1 MOL1         0.3605
      29    H20     19.551900   20.927650   26.645570 H          1 MOL1         0.3605
@<TRIPOS>BOND
    1     1     2    1
    2     1     3    1
    3     1     4    1
    4     1     5    1
    5     5     6    1
    6     5     7    1
    7     5     8    1
    8     8     9    1
    9     8    10    1
   10     8    11    1
   11    11    12    1
   12    11    13    1
   13    11    14    1
   14    14    15    1
   15    14    16    1
   16    14    17    1
   17    17    18    1
   18    17    19    1
   19    17    20    1
   20    20    21    1
   21    20    22    1
   22    22    23    1
   23    22    24    1
   24    22    25    1
   25    20    26    1
   26    26    27    1
   27    26    28    1
   28    26    29    1
@<TRIPOS>SUBSTRUCTURE
       1 MOL1            1 RESIDUE      1      MOL     
@<SCITEGIC>MOL_PROPERTY
VM2 Rank
SciTegic.value.IntegerValue
26

@<SCITEGIC>MOL_PROPERTY
Conf_Id
SciTegic.value.IntegerValue
1260

@<SCITEGIC>MOL_PROPERTY
Probability
SciTegic.value.DoubleValue
1.32

@<SCITEGIC>MOL_PROPERTY
Sum Probability
SciTegic.value.DoubleValue
72.07

@<SCITEGIC>MOL_PROPERTY
Delta G
SciTegic.value.DoubleValue
1.246

@<SCITEGIC>MOL_PROPERTY
G
SciTegic.value.DoubleValue
34.948

@<SCITEGIC>MOL_PROPERTY
E
SciTegic.value.DoubleValue
-2.744

@<SCITEGIC>MOL_PROPERTY
-TS
SciTegic.value.DoubleValue
37.692

@<SCITEGIC>MOL_PROPERTY
U+W
SciTegic.value.DoubleValue
-26.888

@<SCITEGIC>MOL_PROPERTY
U
SciTegic.value.DoubleValue
25.267

@<SCITEGIC>MOL_PROPERTY
W
SciTegic.value.DoubleValue
-52.155

@<SCITEGIC>MOL_PROPERTY
W(PB)
SciTegic.value.DoubleValue
-54.665

@<SCITEGIC>MOL_PROPERTY
W(SA)
SciTegic.value.DoubleValue
2.509

@<SCITEGIC>MOL_PROPERTY
Valence
SciTegic.value.DoubleValue
3.967

@<SCITEGIC>MOL_PROPERTY
Coulomb
SciTegic.value.DoubleValue
20.252

@<SCITEGIC>MOL_PROPERTY
VdW
SciTegic.value.DoubleValue
1.048

@<SCITEGIC>MOL_PROPERTY
VdW6
SciTegic.value.DoubleValue
-9.487

@<SCITEGIC>MOL_PROPERTY
VdW12
SciTegic.value.DoubleValue
10.535

@<SCITEGIC>MOL_PROPERTY
Bond
SciTegic.value.DoubleValue
0.252

@<SCITEGIC>MOL_PROPERTY
Angle
SciTegic.value.DoubleValue
1.329

@<SCITEGIC>MOL_PROPERTY
Pdih
SciTegic.value.DoubleValue
2.385

@<SCITEGIC>MOL_PROPERTY
Idih
SciTegic.value.DoubleValue
0.000

@<SCITEGIC>MOL_PROPERTY
Tether
SciTegic.value.DoubleValue
0.000

@<TRIPOS>MOLECULE
guest-s15_vm2.mol2 : vm2 ligand conformer 27
          29          28           1
SMALL
USER_CHARGES
 
@<TRIPOS>ATOM
       1    C1      18.307624   19.530105   20.294609 C.3        1 MOL1        -0.2426
       2    H1      18.354973   18.722361   19.552819 H          1 MOL1         0.0959
       3    H2      17.871897   19.125646   21.216702 H          1 MOL1         0.0959
       4    H3      17.621200   20.297113   19.913359 H          1 MOL1         0.0959
       5    C2      19.707419   20.133871   20.547723 C.3        1 MOL1        -0.1410
       6    H4      19.638419   20.924885   21.306299 H          1 MOL1         0.0948
       7    H5      20.050304   20.629114   19.628596 H          1 MOL1         0.0948
       8    C3      20.766516   19.081780   20.964882 C.3        1 MOL1        -0.1435
       9    H6      20.909092   18.374723   20.136123 H          1 MOL1         0.0948
      10    H7      21.733085   19.586759   21.098484 H          1 MOL1         0.0948
      11    C4      20.435241   18.279747   22.249918 C.3        1 MOL1        -0.1435
      12    H8      21.247277   17.560914   22.425983 H          1 MOL1         0.0948
      13    H9      19.529508   17.679066   22.093131 H          1 MOL1         0.0948
      14    C5      20.264696   19.166610   23.506426 C.3        1 MOL1        -0.1435
      15    H10     21.156592   19.795474   23.634572 H          1 MOL1         0.0948
      16    H11     19.412267   19.842322   23.363761 H          1 MOL1         0.0948
      17    C6      20.044863   18.316082   24.781044 C.3        1 MOL1        -0.1500
      18    H12     20.880458   17.611275   24.886212 H          1 MOL1         0.0948
      19    H13     19.135606   17.710225   24.670725 H          1 MOL1         0.0948
      20    C7      19.948905   19.168188   26.065070 C.3        1 MOL1         0.1162
      21    H14     20.852915   19.780552   26.138691 H          1 MOL1         0.0910
      22    C8      19.877933   18.261387   27.304009 C.3        1 MOL1        -0.2491
      23    H15     18.984285   17.625192   27.279668 H          1 MOL1         0.0959
      24    H16     20.759264   17.610485   27.361770 H          1 MOL1         0.0959
      25    H17     19.846250   18.860482   28.222424 H          1 MOL1         0.0959
      26    N1      18.782803   20.118231   26.040318 N.4        1 MOL1        -0.5987
      27    H18     18.839928   20.759229   25.244413 H          1 MOL1         0.3605
      28    H19     18.746439   20.687679   26.890666 H          1 MOL1         0.3605
      29    H20     17.894028   19.615640   25.969425 H          1 MOL1         0.3605
@<TRIPOS>BOND
    1     1     2    1
    2     1     3    1
    3     1     4    1
    4     1     5    1
    5     5     6    1
    6     5     7    1
    7     5     8    1
    8     8     9    1
    9     8    10    1
   10     8    11    1
   11    11    12    1
   12    11    13    1
   13    11    14    1
   14    14    15    1
   15    14    16    1
   16    14    17    1
   17    17    18    1
   18    17    19    1
   19    17    20    1
   20    20    21    1
   21    20    22    1
   22    22    23    1
   23    22    24    1
   24    22    25    1
   25    20    26    1
   26    26    27    1
   27    26    28    1
   28    26    29    1
@<TRIPOS>SUBSTRUCTURE
       1 MOL1            1 RESIDUE      1      MOL     
@<SCITEGIC>MOL_PROPERTY
VM2 Rank
SciTegic.value.IntegerValue
27

@<SCITEGIC>MOL_PROPERTY
Conf_Id
SciTegic.value.IntegerValue
254

@<SCITEGIC>MOL_PROPERTY
Probability
SciTegic.value.DoubleValue
1.28

@<SCITEGIC>MOL_PROPERTY
Sum Probability
SciTegic.value.DoubleValue
73.36

@<SCITEGIC>MOL_PROPERTY
Delta G
SciTegic.value.DoubleValue
1.264

@<SCITEGIC>MOL_PROPERTY
G
SciTegic.value.DoubleValue
34.965

@<SCITEGIC>MOL_PROPERTY
E
SciTegic.value.DoubleValue
-2.856

@<SCITEGIC>MOL_PROPERTY
-TS
SciTegic.value.DoubleValue
37.821

@<SCITEGIC>MOL_PROPERTY
U+W
SciTegic.value.DoubleValue
-27.000

@<SCITEGIC>MOL_PROPERTY
U
SciTegic.value.DoubleValue
25.448

@<SCITEGIC>MOL_PROPERTY
W
SciTegic.value.DoubleValue
-52.448

@<SCITEGIC>MOL_PROPERTY
W(PB)
SciTegic.value.DoubleValue
-54.940

@<SCITEGIC>MOL_PROPERTY
W(SA)
SciTegic.value.DoubleValue
2.491

@<SCITEGIC>MOL_PROPERTY
Valence
SciTegic.value.DoubleValue
4.119

@<SCITEGIC>MOL_PROPERTY
Coulomb
SciTegic.value.DoubleValue
20.194

@<SCITEGIC>MOL_PROPERTY
VdW
SciTegic.value.DoubleValue
1.135

@<SCITEGIC>MOL_PROPERTY
VdW6
SciTegic.value.DoubleValue
-9.587

@<SCITEGIC>MOL_PROPERTY
VdW12
SciTegic.value.DoubleValue
10.721

@<SCITEGIC>MOL_PROPERTY
Bond
SciTegic.value.DoubleValue
0.268

@<SCITEGIC>MOL_PROPERTY
Angle
SciTegic.value.DoubleValue
1.523

@<SCITEGIC>MOL_PROPERTY
Pdih
SciTegic.value.DoubleValue
2.327

@<SCITEGIC>MOL_PROPERTY
Idih
SciTegic.value.DoubleValue
0.000

@<SCITEGIC>MOL_PROPERTY
Tether
SciTegic.value.DoubleValue
0.000

@<TRIPOS>MOLECULE
guest-s15_vm2.mol2 : vm2 ligand conformer 28
          29          28           1
SMALL
USER_CHARGES
 
@<TRIPOS>ATOM
       1    C1      19.601695   19.838716   19.261918 C.3        1 MOL1        -0.2426
       2    H1      18.740884   20.508232   19.387496 H          1 MOL1         0.0959
       3    H2      20.513001   20.401047   19.499619 H          1 MOL1         0.0959
       4    H3      19.655890   19.557016   18.202371 H          1 MOL1         0.0959
       5    C2      19.461362   18.580654   20.148768 C.3        1 MOL1        -0.1410
       6    H4      20.349801   17.944417   20.032157 H          1 MOL1         0.0948
       7    H5      18.609489   17.988017   19.787011 H          1 MOL1         0.0948
       8    C3      19.240135   18.901915   21.646747 C.3        1 MOL1        -0.1435
       9    H6      18.349931   19.536072   21.757962 H          1 MOL1         0.0948
      10    H7      19.017368   17.960686   22.165285 H          1 MOL1         0.0948
      11    C4      20.458200   19.587151   22.316785 C.3        1 MOL1        -0.1435
      12    H8      20.681979   20.526034   21.794239 H          1 MOL1         0.0948
      13    H9      21.348030   18.952302   22.206520 H          1 MOL1         0.0948
      14    C5      20.236144   19.914901   23.813890 C.3        1 MOL1        -0.1435
      15    H10     21.091470   20.506032   24.169693 H          1 MOL1         0.0948
      16    H11     19.351287   20.557417   23.914848 H          1 MOL1         0.0948
      17    C6      20.089035   18.657054   24.707968 C.3        1 MOL1        -0.1500
      18    H12     20.927545   17.977282   24.506246 H          1 MOL1         0.0948
      19    H13     19.172047   18.112730   24.449807 H          1 MOL1         0.0948
      20    C7      20.072428   18.993477   26.214594 C.3        1 MOL1         0.1162
      21    H14     20.984938   19.548947   26.452103 H          1 MOL1         0.0910
      22    C8      20.060849   17.703880   27.050705 C.3        1 MOL1        -0.2491
      23    H15     20.086512   17.935879   28.122580 H          1 MOL1         0.0959
      24    H16     19.160635   17.109183   26.850996 H          1 MOL1         0.0959
      25    H17     20.937181   17.084096   26.823400 H          1 MOL1         0.0959
      26    N1      18.916152   19.878254   26.592624 N.4        1 MOL1        -0.5987
      27    H18     18.932724   20.109930   27.589968 H          1 MOL1         0.3605
      28    H19     18.019875   19.424160   26.397805 H          1 MOL1         0.3605
      29    H20     18.935250   20.759774   26.072733 H          1 MOL1         0.3605
@<TRIPOS>BOND
    1     1     2    1
    2     1     3    1
    3     1     4    1
    4     1     5    1
    5     5     6    1
    6     5     7    1
    7     5     8    1
    8     8     9    1
    9     8    10    1
   10     8    11    1
   11    11    12    1
   12    11    13    1
   13    11    14    1
   14    14    15    1
   15    14    16    1
   16    14    17    1
   17    17    18    1
   18    17    19    1
   19    17    20    1
   20    20    21    1
   21    20    22    1
   22    22    23    1
   23    22    24    1
   24    22    25    1
   25    20    26    1
   26    26    27    1
   27    26    28    1
   28    26    29    1
@<TRIPOS>SUBSTRUCTURE
       1 MOL1            1 RESIDUE      1      MOL     
@<SCITEGIC>MOL_PROPERTY
VM2 Rank
SciTegic.value.IntegerValue
28

@<SCITEGIC>MOL_PROPERTY
Conf_Id
SciTegic.value.IntegerValue
849

@<SCITEGIC>MOL_PROPERTY
Probability
SciTegic.value.DoubleValue
1.27

@<SCITEGIC>MOL_PROPERTY
Sum Probability
SciTegic.value.DoubleValue
74.63

@<SCITEGIC>MOL_PROPERTY
Delta G
SciTegic.value.DoubleValue
1.267

@<SCITEGIC>MOL_PROPERTY
G
SciTegic.value.DoubleValue
34.969

@<SCITEGIC>MOL_PROPERTY
E
SciTegic.value.DoubleValue
-2.592

@<SCITEGIC>MOL_PROPERTY
-TS
SciTegic.value.DoubleValue
37.561

@<SCITEGIC>MOL_PROPERTY
U+W
SciTegic.value.DoubleValue
-26.737

@<SCITEGIC>MOL_PROPERTY
U
SciTegic.value.DoubleValue
25.449

@<SCITEGIC>MOL_PROPERTY
W
SciTegic.value.DoubleValue
-52.186

@<SCITEGIC>MOL_PROPERTY
W(PB)
SciTegic.value.DoubleValue
-54.672

@<SCITEGIC>MOL_PROPERTY
W(SA)
SciTegic.value.DoubleValue
2.486

@<SCITEGIC>MOL_PROPERTY
Valence
SciTegic.value.DoubleValue
4.270

@<SCITEGIC>MOL_PROPERTY
Coulomb
SciTegic.value.DoubleValue
19.867

@<SCITEGIC>MOL_PROPERTY
VdW
SciTegic.value.DoubleValue
1.312

@<SCITEGIC>MOL_PROPERTY
VdW6
SciTegic.value.DoubleValue
-9.219

@<SCITEGIC>MOL_PROPERTY
VdW12
SciTegic.value.DoubleValue
10.531

@<SCITEGIC>MOL_PROPERTY
Bond
SciTegic.value.DoubleValue
0.272

@<SCITEGIC>MOL_PROPERTY
Angle
SciTegic.value.DoubleValue
1.393

@<SCITEGIC>MOL_PROPERTY
Pdih
SciTegic.value.DoubleValue
2.605

@<SCITEGIC>MOL_PROPERTY
Idih
SciTegic.value.DoubleValue
0.000

@<SCITEGIC>MOL_PROPERTY
Tether
SciTegic.value.DoubleValue
0.000

@<TRIPOS>MOLECULE
guest-s15_vm2.mol2 : vm2 ligand conformer 29
          29          28           1
SMALL
USER_CHARGES
 
@<TRIPOS>ATOM
       1    C1      18.991573   18.554156   19.572392 C.3        1 MOL1        -0.2426
       2    H1      19.019857   17.510694   19.912103 H          1 MOL1         0.0959
       3    H2      18.078188   19.018886   19.963993 H          1 MOL1         0.0959
       4    H3      18.916183   18.549026   18.477309 H          1 MOL1         0.0959
       5    C2      20.255721   19.319873   20.024048 C.3        1 MOL1        -0.1410
       6    H4      20.191444   20.366234   19.694335 H          1 MOL1         0.0948
       7    H5      21.130801   18.890723   19.516296 H          1 MOL1         0.0948
       8    C3      20.491563   19.265878   21.552637 C.3        1 MOL1        -0.1435
       9    H6      20.584964   18.216996   21.862869 H          1 MOL1         0.0948
      10    H7      21.455613   19.743934   21.774305 H          1 MOL1         0.0948
      11    C4      19.377367   19.967662   22.369729 C.3        1 MOL1        -0.1435
      12    H8      18.429833   19.423934   22.259168 H          1 MOL1         0.0948
      13    H9      19.209188   20.971006   21.954825 H          1 MOL1         0.0948
      14    C5      19.710026   20.109743   23.875445 C.3        1 MOL1        -0.1435
      15    H10     20.650793   20.665218   23.993100 H          1 MOL1         0.0948
      16    H11     18.927773   20.724912   24.339050 H          1 MOL1         0.0948
      17    C6      19.809176   18.751402   24.616385 C.3        1 MOL1        -0.1500
      18    H12     20.606467   18.149005   24.163765 H          1 MOL1         0.0948
      19    H13     18.875896   18.187763   24.485721 H          1 MOL1         0.0948
      20    C7      20.114280   18.907989   26.122070 C.3        1 MOL1         0.1162
      21    H14     21.027501   19.501831   26.227058 H          1 MOL1         0.0910
      22    C8      20.356686   17.532500   26.763849 C.3        1 MOL1        -0.2491
      23    H15     20.608565   17.638635   27.826254 H          1 MOL1         0.0959
      24    H16     19.466750   16.895470   26.685356 H          1 MOL1         0.0959
      25    H17     21.191377   17.015273   26.274437 H          1 MOL1         0.0959
      26    N1      19.029609   19.646798   26.857445 N.4        1 MOL1        -0.5987
      27    H18     18.887362   20.583934   26.471281 H          1 MOL1         0.3605
      28    H19     19.257940   19.755869   27.849717 H          1 MOL1         0.3605
      29    H20     18.136210   19.150644   26.800965 H          1 MOL1         0.3605
@<TRIPOS>BOND
    1     1     2    1
    2     1     3    1
    3     1     4    1
    4     1     5    1
    5     5     6    1
    6     5     7    1
    7     5     8    1
    8     8     9    1
    9     8    10    1
   10     8    11    1
   11    11    12    1
   12    11    13    1
   13    11    14    1
   14    14    15    1
   15    14    16    1
   16    14    17    1
   17    17    18    1
   18    17    19    1
   19    17    20    1
   20    20    21    1
   21    20    22    1
   22    22    23    1
   23    22    24    1
   24    22    25    1
   25    20    26    1
   26    26    27    1
   27    26    28    1
   28    26    29    1
@<TRIPOS>SUBSTRUCTURE
       1 MOL1            1 RESIDUE      1      MOL     
@<SCITEGIC>MOL_PROPERTY
VM2 Rank
SciTegic.value.IntegerValue
29

@<SCITEGIC>MOL_PROPERTY
Conf_Id
SciTegic.value.IntegerValue
1049

@<SCITEGIC>MOL_PROPERTY
Probability
SciTegic.value.DoubleValue
1.22

@<SCITEGIC>MOL_PROPERTY
Sum Probability
SciTegic.value.DoubleValue
75.84

@<SCITEGIC>MOL_PROPERTY
Delta G
SciTegic.value.DoubleValue
1.295

@<SCITEGIC>MOL_PROPERTY
G
SciTegic.value.DoubleValue
34.997

@<SCITEGIC>MOL_PROPERTY
E
SciTegic.value.DoubleValue
-2.602

@<SCITEGIC>MOL_PROPERTY
-TS
SciTegic.value.DoubleValue
37.599

@<SCITEGIC>MOL_PROPERTY
U+W
SciTegic.value.DoubleValue
-26.747

@<SCITEGIC>MOL_PROPERTY
U
SciTegic.value.DoubleValue
25.263

@<SCITEGIC>MOL_PROPERTY
W
SciTegic.value.DoubleValue
-52.010

@<SCITEGIC>MOL_PROPERTY
W(PB)
SciTegic.value.DoubleValue
-54.531

@<SCITEGIC>MOL_PROPERTY
W(SA)
SciTegic.value.DoubleValue
2.521

@<SCITEGIC>MOL_PROPERTY
Valence
SciTegic.value.DoubleValue
4.207

@<SCITEGIC>MOL_PROPERTY
Coulomb
SciTegic.value.DoubleValue
19.737

@<SCITEGIC>MOL_PROPERTY
VdW
SciTegic.value.DoubleValue
1.319

@<SCITEGIC>MOL_PROPERTY
VdW6
SciTegic.value.DoubleValue
-9.273

@<SCITEGIC>MOL_PROPERTY
VdW12
SciTegic.value.DoubleValue
10.591

@<SCITEGIC>MOL_PROPERTY
Bond
SciTegic.value.DoubleValue
0.271

@<SCITEGIC>MOL_PROPERTY
Angle
SciTegic.value.DoubleValue
1.357

@<SCITEGIC>MOL_PROPERTY
Pdih
SciTegic.value.DoubleValue
2.580

@<SCITEGIC>MOL_PROPERTY
Idih
SciTegic.value.DoubleValue
0.000

@<SCITEGIC>MOL_PROPERTY
Tether
SciTegic.value.DoubleValue
0.000

@<TRIPOS>MOLECULE
guest-s15_vm2.mol2 : vm2 ligand conformer 30
          29          28           1
SMALL
USER_CHARGES
 
@<TRIPOS>ATOM
       1    C1      20.387156   20.730673   20.274102 C.3        1 MOL1        -0.2426
       2    H1      19.551448   21.422430   20.441674 H          1 MOL1         0.0959
       3    H2      21.085083   20.823368   21.115361 H          1 MOL1         0.0959
       4    H3      20.916498   21.056620   19.369402 H          1 MOL1         0.0959
       5    C2      19.882781   19.278812   20.111591 C.3        1 MOL1        -0.1410
       6    H4      20.738887   18.602842   19.977914 H          1 MOL1         0.0948
       7    H5      19.290643   19.211311   19.188242 H          1 MOL1         0.0948
       8    C3      19.012338   18.793305   21.295684 C.3        1 MOL1        -0.1435
       9    H6      18.147518   19.460803   21.412812 H          1 MOL1         0.0948
      10    H7      18.606902   17.802912   21.046646 H          1 MOL1         0.0948
      11    C4      19.786128   18.701463   22.632515 C.3        1 MOL1        -0.1435
      12    H8      20.141982   19.698867   22.918648 H          1 MOL1         0.0948
      13    H9      20.675365   18.070374   22.497916 H          1 MOL1         0.0948
      14    C5      18.905602   18.118154   23.763611 C.3        1 MOL1        -0.1435
      15    H10     18.024221   18.755506   23.915009 H          1 MOL1         0.0948
      16    H11     18.520561   17.137963   23.450136 H          1 MOL1         0.0948
      17    C6      19.668346   17.939989   25.101430 C.3        1 MOL1        -0.1500
      18    H12     20.484251   17.220843   24.949467 H          1 MOL1         0.0948
      19    H13     18.993929   17.486604   25.839991 H          1 MOL1         0.0948
      20    C7      20.252420   19.248876   25.678765 C.3        1 MOL1         0.1162
      21    H14     20.938481   19.675488   24.941177 H          1 MOL1         0.0910
      22    C8      21.048230   18.959526   26.961210 C.3        1 MOL1        -0.2491
      23    H15     21.860730   18.249245   26.763492 H          1 MOL1         0.0959
      24    H16     21.498495   19.879282   27.354522 H          1 MOL1         0.0959
      25    H17     20.404177   18.533687   27.740809 H          1 MOL1         0.0959
      26    N1      19.192998   20.285202   25.935093 N.4        1 MOL1        -0.5987
      27    H18     18.511142   19.958006   26.624665 H          1 MOL1         0.3605
      28    H19     18.681353   20.512285   25.077998 H          1 MOL1         0.3605
      29    H20     19.598187   21.155166   26.292270 H          1 MOL1         0.3605
@<TRIPOS>BOND
    1     1     2    1
    2     1     3    1
    3     1     4    1
    4     1     5    1
    5     5     6    1
    6     5     7    1
    7     5     8    1
    8     8     9    1
    9     8    10    1
   10     8    11    1
   11    11    12    1
   12    11    13    1
   13    11    14    1
   14    14    15    1
   15    14    16    1
   16    14    17    1
   17    17    18    1
   18    17    19    1
   19    17    20    1
   20    20    21    1
   21    20    22    1
   22    22    23    1
   23    22    24    1
   24    22    25    1
   25    20    26    1
   26    26    27    1
   27    26    28    1
   28    26    29    1
@<TRIPOS>SUBSTRUCTURE
       1 MOL1            1 RESIDUE      1      MOL     
@<SCITEGIC>MOL_PROPERTY
VM2 Rank
SciTegic.value.IntegerValue
30

@<SCITEGIC>MOL_PROPERTY
Conf_Id
SciTegic.value.IntegerValue
1294

@<SCITEGIC>MOL_PROPERTY
Probability
SciTegic.value.DoubleValue
1.20

@<SCITEGIC>MOL_PROPERTY
Sum Probability
SciTegic.value.DoubleValue
77.05

@<SCITEGIC>MOL_PROPERTY
Delta G
SciTegic.value.DoubleValue
1.301

@<SCITEGIC>MOL_PROPERTY
G
SciTegic.value.DoubleValue
35.003

@<SCITEGIC>MOL_PROPERTY
E
SciTegic.value.DoubleValue
-2.687

@<SCITEGIC>MOL_PROPERTY
-TS
SciTegic.value.DoubleValue
37.690

@<SCITEGIC>MOL_PROPERTY
U+W
SciTegic.value.DoubleValue
-26.832

@<SCITEGIC>MOL_PROPERTY
U
SciTegic.value.DoubleValue
25.375

@<SCITEGIC>MOL_PROPERTY
W
SciTegic.value.DoubleValue
-52.207

@<SCITEGIC>MOL_PROPERTY
W(PB)
SciTegic.value.DoubleValue
-54.719

@<SCITEGIC>MOL_PROPERTY
W(SA)
SciTegic.value.DoubleValue
2.512

@<SCITEGIC>MOL_PROPERTY
Valence
SciTegic.value.DoubleValue
3.961

@<SCITEGIC>MOL_PROPERTY
Coulomb
SciTegic.value.DoubleValue
20.374

@<SCITEGIC>MOL_PROPERTY
VdW
SciTegic.value.DoubleValue
1.041

@<SCITEGIC>MOL_PROPERTY
VdW6
SciTegic.value.DoubleValue
-9.517

@<SCITEGIC>MOL_PROPERTY
VdW12
SciTegic.value.DoubleValue
10.558

@<SCITEGIC>MOL_PROPERTY
Bond
SciTegic.value.DoubleValue
0.254

@<SCITEGIC>MOL_PROPERTY
Angle
SciTegic.value.DoubleValue
1.329

@<SCITEGIC>MOL_PROPERTY
Pdih
SciTegic.value.DoubleValue
2.378

@<SCITEGIC>MOL_PROPERTY
Idih
SciTegic.value.DoubleValue
0.000

@<SCITEGIC>MOL_PROPERTY
Tether
SciTegic.value.DoubleValue
0.000

@<TRIPOS>MOLECULE
guest-s15_vm2.mol2 : vm2 ligand conformer 31
          29          28           1
SMALL
USER_CHARGES
 
@<TRIPOS>ATOM
       1    C1      21.068211   19.351766   19.751293 C.3        1 MOL1        -0.2426
       2    H1      21.726934   18.529416   20.059572 H          1 MOL1         0.0959
       3    H2      20.490351   19.018715   18.879303 H          1 MOL1         0.0959
       4    H3      21.701565   20.190766   19.435139 H          1 MOL1         0.0959
       5    C2      20.136124   19.777479   20.905296 C.3        1 MOL1        -0.1410
       6    H4      19.510819   20.619657   20.577667 H          1 MOL1         0.0948
       7    H5      20.748090   20.140643   21.741642 H          1 MOL1         0.0948
       8    C3      19.235840   18.609307   21.371392 C.3        1 MOL1        -0.1435
       9    H6      18.690290   18.212204   20.504280 H          1 MOL1         0.0948
      10    H7      19.859020   17.782707   21.737072 H          1 MOL1         0.0948
      11    C4      18.200851   19.014680   22.452801 C.3        1 MOL1        -0.1435
      12    H8      17.593201   18.134997   22.705953 H          1 MOL1         0.0948
      13    H9      17.503994   19.745324   22.019494 H          1 MOL1         0.0948
      14    C5      18.793463   19.608075   23.757392 C.3        1 MOL1        -0.1435
      15    H10     19.305086   20.555023   23.539881 H          1 MOL1         0.0948
      16    H11     17.956701   19.862841   24.420779 H          1 MOL1         0.0948
      17    C6      19.762496   18.645983   24.491410 C.3        1 MOL1        -0.1500
      18    H12     20.610136   18.415911   23.833936 H          1 MOL1         0.0948
      19    H13     19.255871   17.693924   24.697819 H          1 MOL1         0.0948
      20    C7      20.315328   19.236503   25.806680 C.3        1 MOL1         0.1162
      21    H14     20.780895   20.200799   25.580816 H          1 MOL1         0.0910
      22    C8      21.388792   18.309337   26.398750 C.3        1 MOL1        -0.2491
      23    H15     21.810899   18.739573   27.315334 H          1 MOL1         0.0959
      24    H16     20.971417   17.324617   26.643853 H          1 MOL1         0.0959
      25    H17     22.213164   18.164115   25.689463 H          1 MOL1         0.0959
      26    N1      19.234896   19.502871   26.818985 N.4        1 MOL1        -0.5987
      27    H18     19.618206   19.910098   27.676804 H          1 MOL1         0.3605
      28    H19     18.747615   18.641353   27.079486 H          1 MOL1         0.3605
      29    H20     18.535096   20.155733   26.456215 H          1 MOL1         0.3605
@<TRIPOS>BOND
    1     1     2    1
    2     1     3    1
    3     1     4    1
    4     1     5    1
    5     5     6    1
    6     5     7    1
    7     5     8    1
    8     8     9    1
    9     8    10    1
   10     8    11    1
   11    11    12    1
   12    11    13    1
   13    11    14    1
   14    14    15    1
   15    14    16    1
   16    14    17    1
   17    17    18    1
   18    17    19    1
   19    17    20    1
   20    20    21    1
   21    20    22    1
   22    22    23    1
   23    22    24    1
   24    22    25    1
   25    20    26    1
   26    26    27    1
   27    26    28    1
   28    26    29    1
@<TRIPOS>SUBSTRUCTURE
       1 MOL1            1 RESIDUE      1      MOL     
@<SCITEGIC>MOL_PROPERTY
VM2 Rank
SciTegic.value.IntegerValue
31

@<SCITEGIC>MOL_PROPERTY
Conf_Id
SciTegic.value.IntegerValue
564

@<SCITEGIC>MOL_PROPERTY
Probability
SciTegic.value.DoubleValue
1.17

@<SCITEGIC>MOL_PROPERTY
Sum Probability
SciTegic.value.DoubleValue
78.22

@<SCITEGIC>MOL_PROPERTY
Delta G
SciTegic.value.DoubleValue
1.316

@<SCITEGIC>MOL_PROPERTY
G
SciTegic.value.DoubleValue
35.018

@<SCITEGIC>MOL_PROPERTY
E
SciTegic.value.DoubleValue
-2.811

@<SCITEGIC>MOL_PROPERTY
-TS
SciTegic.value.DoubleValue
37.828

@<SCITEGIC>MOL_PROPERTY
U+W
SciTegic.value.DoubleValue
-26.955

@<SCITEGIC>MOL_PROPERTY
U
SciTegic.value.DoubleValue
25.306

@<SCITEGIC>MOL_PROPERTY
W
SciTegic.value.DoubleValue
-52.261

@<SCITEGIC>MOL_PROPERTY
W(PB)
SciTegic.value.DoubleValue
-54.752

@<SCITEGIC>MOL_PROPERTY
W(SA)
SciTegic.value.DoubleValue
2.492

@<SCITEGIC>MOL_PROPERTY
Valence
SciTegic.value.DoubleValue
4.184

@<SCITEGIC>MOL_PROPERTY
Coulomb
SciTegic.value.DoubleValue
19.997

@<SCITEGIC>MOL_PROPERTY
VdW
SciTegic.value.DoubleValue
1.124

@<SCITEGIC>MOL_PROPERTY
VdW6
SciTegic.value.DoubleValue
-9.688

@<SCITEGIC>MOL_PROPERTY
VdW12
SciTegic.value.DoubleValue
10.812

@<SCITEGIC>MOL_PROPERTY
Bond
SciTegic.value.DoubleValue
0.280

@<SCITEGIC>MOL_PROPERTY
Angle
SciTegic.value.DoubleValue
1.609

@<SCITEGIC>MOL_PROPERTY
Pdih
SciTegic.value.DoubleValue
2.295

@<SCITEGIC>MOL_PROPERTY
Idih
SciTegic.value.DoubleValue
0.000

@<SCITEGIC>MOL_PROPERTY
Tether
SciTegic.value.DoubleValue
0.000

@<TRIPOS>MOLECULE
guest-s15_vm2.mol2 : vm2 ligand conformer 32
          29          28           1
SMALL
USER_CHARGES
 
@<TRIPOS>ATOM
       1    C1      19.553284   19.811304   19.226670 C.3        1 MOL1        -0.2426
       2    H1      18.597349   20.225737   19.569611 H          1 MOL1         0.0959
       3    H2      20.304512   20.611350   19.251205 H          1 MOL1         0.0959
       4    H3      19.422842   19.505574   18.180511 H          1 MOL1         0.0959
       5    C2      19.994720   18.607667   20.090022 C.3        1 MOL1        -0.1410
       6    H4      20.882394   18.151342   19.630033 H          1 MOL1         0.0948
       7    H5      19.211882   17.836469   20.078163 H          1 MOL1         0.0948
       8    C3      20.334617   18.986655   21.551905 C.3        1 MOL1        -0.1435
       9    H6      20.765833   18.102452   22.037886 H          1 MOL1         0.0948
      10    H7      21.117588   19.757314   21.557898 H          1 MOL1         0.0948
      11    C4      19.108395   19.479611   22.361975 C.3        1 MOL1        -0.1435
      12    H8      18.327189   18.707135   22.360716 H          1 MOL1         0.0948
      13    H9      18.674959   20.357612   21.866152 H          1 MOL1         0.0948
      14    C5      19.445210   19.875374   23.821058 C.3        1 MOL1        -0.1435
      15    H10     20.240664   20.633468   23.821782 H          1 MOL1         0.0948
      16    H11     18.558649   20.357734   24.253030 H          1 MOL1         0.0948
      17    C6      19.864135   18.675752   24.709899 C.3        1 MOL1        -0.1500
      18    H12     20.766035   18.211374   24.293056 H          1 MOL1         0.0948
      19    H13     19.078571   17.908698   24.693429 H          1 MOL1         0.0948
      20    C7      20.160171   19.083220   26.169798 C.3        1 MOL1         0.1162
      21    H14     20.917736   19.872914   26.158614 H          1 MOL1         0.0910
      22    C8      20.721734   17.887016   26.954921 C.3        1 MOL1        -0.2491
      23    H15     20.967050   18.178400   27.983671 H          1 MOL1         0.0959
      24    H16     19.997313   17.063929   26.996134 H          1 MOL1         0.0959
      25    H17     21.640482   17.510543   26.488093 H          1 MOL1         0.0959
      26    N1      18.953733   19.649400   26.867753 N.4        1 MOL1        -0.5987
      27    H18     19.174152   19.929196   27.827842 H          1 MOL1         0.3605
      28    H19     18.194442   18.964690   26.914436 H          1 MOL1         0.3605
      29    H20     18.594658   20.476127   26.382819 H          1 MOL1         0.3605
@<TRIPOS>BOND
    1     1     2    1
    2     1     3    1
    3     1     4    1
    4     1     5    1
    5     5     6    1
    6     5     7    1
    7     5     8    1
    8     8     9    1
    9     8    10    1
   10     8    11    1
   11    11    12    1
   12    11    13    1
   13    11    14    1
   14    14    15    1
   15    14    16    1
   16    14    17    1
   17    17    18    1
   18    17    19    1
   19    17    20    1
   20    20    21    1
   21    20    22    1
   22    22    23    1
   23    22    24    1
   24    22    25    1
   25    20    26    1
   26    26    27    1
   27    26    28    1
   28    26    29    1
@<TRIPOS>SUBSTRUCTURE
       1 MOL1            1 RESIDUE      1      MOL     
@<SCITEGIC>MOL_PROPERTY
VM2 Rank
SciTegic.value.IntegerValue
32

@<SCITEGIC>MOL_PROPERTY
Conf_Id
SciTegic.value.IntegerValue
850

@<SCITEGIC>MOL_PROPERTY
Probability
SciTegic.value.DoubleValue
1.14

@<SCITEGIC>MOL_PROPERTY
Sum Probability
SciTegic.value.DoubleValue
79.36

@<SCITEGIC>MOL_PROPERTY
Delta G
SciTegic.value.DoubleValue
1.333

@<SCITEGIC>MOL_PROPERTY
G
SciTegic.value.DoubleValue
35.035

@<SCITEGIC>MOL_PROPERTY
E
SciTegic.value.DoubleValue
-2.460

@<SCITEGIC>MOL_PROPERTY
-TS
SciTegic.value.DoubleValue
37.495

@<SCITEGIC>MOL_PROPERTY
U+W
SciTegic.value.DoubleValue
-26.604

@<SCITEGIC>MOL_PROPERTY
U
SciTegic.value.DoubleValue
25.451

@<SCITEGIC>MOL_PROPERTY
W
SciTegic.value.DoubleValue
-52.054

@<SCITEGIC>MOL_PROPERTY
W(PB)
SciTegic.value.DoubleValue
-54.545

@<SCITEGIC>MOL_PROPERTY
W(SA)
SciTegic.value.DoubleValue
2.490

@<SCITEGIC>MOL_PROPERTY
Valence
SciTegic.value.DoubleValue
4.319

@<SCITEGIC>MOL_PROPERTY
Coulomb
SciTegic.value.DoubleValue
19.732

@<SCITEGIC>MOL_PROPERTY
VdW
SciTegic.value.DoubleValue
1.400

@<SCITEGIC>MOL_PROPERTY
VdW6
SciTegic.value.DoubleValue
-9.173

@<SCITEGIC>MOL_PROPERTY
VdW12
SciTegic.value.DoubleValue
10.573

@<SCITEGIC>MOL_PROPERTY
Bond
SciTegic.value.DoubleValue
0.281

@<SCITEGIC>MOL_PROPERTY
Angle
SciTegic.value.DoubleValue
1.459

@<SCITEGIC>MOL_PROPERTY
Pdih
SciTegic.value.DoubleValue
2.580

@<SCITEGIC>MOL_PROPERTY
Idih
SciTegic.value.DoubleValue
0.000

@<SCITEGIC>MOL_PROPERTY
Tether
SciTegic.value.DoubleValue
0.000

@<TRIPOS>MOLECULE
guest-s15_vm2.mol2 : vm2 ligand conformer 33
          29          28           1
SMALL
USER_CHARGES
 
@<TRIPOS>ATOM
       1    C1      20.267772   20.744940   20.263499 C.3        1 MOL1        -0.2426
       2    H1      19.926764   21.286484   21.154484 H          1 MOL1         0.0959
       3    H2      21.356592   20.622361   20.330340 H          1 MOL1         0.0959
       4    H3      20.053965   21.376929   19.391832 H          1 MOL1         0.0959
       5    C2      19.561992   19.376914   20.125335 C.3        1 MOL1        -0.1410
       6    H4      19.840521   18.931027   19.160263 H          1 MOL1         0.0948
       7    H5      18.473403   19.524106   20.093274 H          1 MOL1         0.0948
       8    C3      19.922604   18.381432   21.254239 C.3        1 MOL1        -0.1435
       9    H6      19.471330   17.407999   21.017506 H          1 MOL1         0.0948
      10    H7      21.009708   18.222725   21.269755 H          1 MOL1         0.0948
      11    C4      19.441503   18.835229   22.653117 C.3        1 MOL1        -0.1435
      12    H8      18.362017   19.037236   22.621593 H          1 MOL1         0.0948
      13    H9      19.936451   19.776471   22.922636 H          1 MOL1         0.0948
      14    C5      19.736293   17.767122   23.733340 C.3        1 MOL1        -0.1435
      15    H10     19.277864   16.814985   23.432520 H          1 MOL1         0.0948
      16    H11     20.816738   17.578147   23.784884 H          1 MOL1         0.0948
      17    C6      19.194914   18.149654   25.135114 C.3        1 MOL1        -0.1500
      18    H12     19.428075   17.341085   25.840530 H          1 MOL1         0.0948
      19    H13     18.099395   18.199926   25.081232 H          1 MOL1         0.0948
      20    C7      19.724592   19.488570   25.700810 C.3        1 MOL1         0.1162
      21    H14     19.477276   20.284893   24.992698 H          1 MOL1         0.0910
      22    C8      21.250629   19.469808   25.899179 C.3        1 MOL1        -0.2491
      23    H15     21.554572   18.648910   26.560528 H          1 MOL1         0.0959
      24    H16     21.774386   19.353260   24.943214 H          1 MOL1         0.0959
      25    H17     21.594165   20.411357   26.344985 H          1 MOL1         0.0959
      26    N1      19.035701   19.842331   26.989368 N.4        1 MOL1        -0.5987
      27    H18     18.020262   19.902015   26.870203 H          1 MOL1         0.3605
      28    H19     19.354165   20.747231   27.347732 H          1 MOL1         0.3605
      29    H20     19.219695   19.144626   27.715386 H          1 MOL1         0.3605
@<TRIPOS>BOND
    1     1     2    1
    2     1     3    1
    3     1     4    1
    4     1     5    1
    5     5     6    1
    6     5     7    1
    7     5     8    1
    8     8     9    1
    9     8    10    1
   10     8    11    1
   11    11    12    1
   12    11    13    1
   13    11    14    1
   14    14    15    1
   15    14    16    1
   16    14    17    1
   17    17    18    1
   18    17    19    1
   19    17    20    1
   20    20    21    1
   21    20    22    1
   22    22    23    1
   23    22    24    1
   24    22    25    1
   25    20    26    1
   26    26    27    1
   27    26    28    1
   28    26    29    1
@<TRIPOS>SUBSTRUCTURE
       1 MOL1            1 RESIDUE      1      MOL     
@<SCITEGIC>MOL_PROPERTY
VM2 Rank
SciTegic.value.IntegerValue
33

@<SCITEGIC>MOL_PROPERTY
Conf_Id
SciTegic.value.IntegerValue
19

@<SCITEGIC>MOL_PROPERTY
Probability
SciTegic.value.DoubleValue
0.97

@<SCITEGIC>MOL_PROPERTY
Sum Probability
SciTegic.value.DoubleValue
80.33

@<SCITEGIC>MOL_PROPERTY
Delta G
SciTegic.value.DoubleValue
1.431

@<SCITEGIC>MOL_PROPERTY
G
SciTegic.value.DoubleValue
35.133

@<SCITEGIC>MOL_PROPERTY
E
SciTegic.value.DoubleValue
-2.657

@<SCITEGIC>MOL_PROPERTY
-TS
SciTegic.value.DoubleValue
37.789

@<SCITEGIC>MOL_PROPERTY
U+W
SciTegic.value.DoubleValue
-26.802

@<SCITEGIC>MOL_PROPERTY
U
SciTegic.value.DoubleValue
25.521

@<SCITEGIC>MOL_PROPERTY
W
SciTegic.value.DoubleValue
-52.322

@<SCITEGIC>MOL_PROPERTY
W(PB)
SciTegic.value.DoubleValue
-54.805

@<SCITEGIC>MOL_PROPERTY
W(SA)
SciTegic.value.DoubleValue
2.483

@<SCITEGIC>MOL_PROPERTY
Valence
SciTegic.value.DoubleValue
4.455

@<SCITEGIC>MOL_PROPERTY
Coulomb
SciTegic.value.DoubleValue
19.959

@<SCITEGIC>MOL_PROPERTY
VdW
SciTegic.value.DoubleValue
1.107

@<SCITEGIC>MOL_PROPERTY
VdW6
SciTegic.value.DoubleValue
-9.753

@<SCITEGIC>MOL_PROPERTY
VdW12
SciTegic.value.DoubleValue
10.860

@<SCITEGIC>MOL_PROPERTY
Bond
SciTegic.value.DoubleValue
0.265

@<SCITEGIC>MOL_PROPERTY
Angle
SciTegic.value.DoubleValue
1.659

@<SCITEGIC>MOL_PROPERTY
Pdih
SciTegic.value.DoubleValue
2.531

@<SCITEGIC>MOL_PROPERTY
Idih
SciTegic.value.DoubleValue
0.000

@<SCITEGIC>MOL_PROPERTY
Tether
SciTegic.value.DoubleValue
0.000

@<TRIPOS>MOLECULE
guest-s15_vm2.mol2 : vm2 ligand conformer 34
          29          28           1
SMALL
USER_CHARGES
 
@<TRIPOS>ATOM
       1    C1      19.378773   19.672818   19.051341 C.3        1 MOL1        -0.2426
       2    H1      18.539554   20.376302   19.129252 H          1 MOL1         0.0959
       3    H2      20.259702   20.228340   18.704077 H          1 MOL1         0.0959
       4    H3      19.125548   18.929468   18.284302 H          1 MOL1         0.0959
       5    C2      19.653721   18.986045   20.405896 C.3        1 MOL1        -0.1410
       6    H4      20.477756   18.268351   20.289508 H          1 MOL1         0.0948
       7    H5      18.766676   18.408757   20.697928 H          1 MOL1         0.0948
       8    C3      20.008653   20.015577   21.504700 C.3        1 MOL1        -0.1435
       9    H6      20.844420   20.636282   21.153176 H          1 MOL1         0.0948
      10    H7      19.162230   20.698659   21.660037 H          1 MOL1         0.0948
      11    C4      20.411842   19.371823   22.854110 C.3        1 MOL1        -0.1435
      12    H8      20.776033   20.169865   23.514104 H          1 MOL1         0.0948
      13    H9      21.259437   18.690608   22.696836 H          1 MOL1         0.0948
      14    C5      19.252442   18.612490   23.548065 C.3        1 MOL1        -0.1435
      15    H10     18.392939   19.283375   23.677888 H          1 MOL1         0.0948
      16    H11     18.906802   17.797715   22.899029 H          1 MOL1         0.0948
      17    C6      19.656287   17.996361   24.912377 C.3        1 MOL1        -0.1500
      18    H12     20.456698   17.263257   24.745444 H          1 MOL1         0.0948
      19    H13     18.804262   17.432823   25.315331 H          1 MOL1         0.0948
      20    C7      20.128167   19.026210   25.963415 C.3        1 MOL1         0.1162
      21    H14     20.992979   19.560648   25.559687 H          1 MOL1         0.0910
      22    C8      20.566463   18.312478   27.251926 C.3        1 MOL1        -0.2491
      23    H15     21.374005   17.598762   27.046418 H          1 MOL1         0.0959
      24    H16     20.940069   19.034950   27.988023 H          1 MOL1         0.0959
      25    H17     19.731906   17.763044   27.705306 H          1 MOL1         0.0959
      26    N1      19.079653   20.062197   26.262172 N.4        1 MOL1        -0.5987
      27    H18     19.416304   20.751565   26.940422 H          1 MOL1         0.3605
      28    H19     18.234640   19.635540   26.651252 H          1 MOL1         0.3605
      29    H20     18.808137   20.569734   25.415632 H          1 MOL1         0.3605
@<TRIPOS>BOND
    1     1     2    1
    2     1     3    1
    3     1     4    1
    4     1     5    1
    5     5     6    1
    6     5     7    1
    7     5     8    1
    8     8     9    1
    9     8    10    1
   10     8    11    1
   11    11    12    1
   12    11    13    1
   13    11    14    1
   14    14    15    1
   15    14    16    1
   16    14    17    1
   17    17    18    1
   18    17    19    1
   19    17    20    1
   20    20    21    1
   21    20    22    1
   22    22    23    1
   23    22    24    1
   24    22    25    1
   25    20    26    1
   26    26    27    1
   27    26    28    1
   28    26    29    1
@<TRIPOS>SUBSTRUCTURE
       1 MOL1            1 RESIDUE      1      MOL     
@<SCITEGIC>MOL_PROPERTY
VM2 Rank
SciTegic.value.IntegerValue
34

@<SCITEGIC>MOL_PROPERTY
Conf_Id
SciTegic.value.IntegerValue
907

@<SCITEGIC>MOL_PROPERTY
Probability
SciTegic.value.DoubleValue
0.96

@<SCITEGIC>MOL_PROPERTY
Sum Probability
SciTegic.value.DoubleValue
81.29

@<SCITEGIC>MOL_PROPERTY
Delta G
SciTegic.value.DoubleValue
1.435

@<SCITEGIC>MOL_PROPERTY
G
SciTegic.value.DoubleValue
35.137

@<SCITEGIC>MOL_PROPERTY
E
SciTegic.value.DoubleValue
-2.510

@<SCITEGIC>MOL_PROPERTY
-TS
SciTegic.value.DoubleValue
37.647

@<SCITEGIC>MOL_PROPERTY
U+W
SciTegic.value.DoubleValue
-26.655

@<SCITEGIC>MOL_PROPERTY
U
SciTegic.value.DoubleValue
25.432

@<SCITEGIC>MOL_PROPERTY
W
SciTegic.value.DoubleValue
-52.087

@<SCITEGIC>MOL_PROPERTY
W(PB)
SciTegic.value.DoubleValue
-54.610

@<SCITEGIC>MOL_PROPERTY
W(SA)
SciTegic.value.DoubleValue
2.523

@<SCITEGIC>MOL_PROPERTY
Valence
SciTegic.value.DoubleValue
4.057

@<SCITEGIC>MOL_PROPERTY
Coulomb
SciTegic.value.DoubleValue
20.266

@<SCITEGIC>MOL_PROPERTY
VdW
SciTegic.value.DoubleValue
1.108

@<SCITEGIC>MOL_PROPERTY
VdW6
SciTegic.value.DoubleValue
-9.451

@<SCITEGIC>MOL_PROPERTY
VdW12
SciTegic.value.DoubleValue
10.559

@<SCITEGIC>MOL_PROPERTY
Bond
SciTegic.value.DoubleValue
0.265

@<SCITEGIC>MOL_PROPERTY
Angle
SciTegic.value.DoubleValue
1.407

@<SCITEGIC>MOL_PROPERTY
Pdih
SciTegic.value.DoubleValue
2.385

@<SCITEGIC>MOL_PROPERTY
Idih
SciTegic.value.DoubleValue
0.000

@<SCITEGIC>MOL_PROPERTY
Tether
SciTegic.value.DoubleValue
0.000

@<TRIPOS>MOLECULE
guest-s15_vm2.mol2 : vm2 ligand conformer 35
          29          28           1
SMALL
USER_CHARGES
 
@<TRIPOS>ATOM
       1    C1      20.460810   19.108207   19.223660 C.3        1 MOL1        -0.2426
       2    H1      19.536204   18.706187   18.789228 H          1 MOL1         0.0959
       3    H2      20.576529   20.145137   18.882178 H          1 MOL1         0.0959
       4    H3      21.301729   18.526349   18.824502 H          1 MOL1         0.0959
       5    C2      20.427954   19.031509   20.764736 C.3        1 MOL1        -0.1410
       6    H4      21.376216   19.412786   21.168573 H          1 MOL1         0.0948
       7    H5      20.352855   17.978642   21.067178 H          1 MOL1         0.0948
       8    C3      19.247289   19.841429   21.350443 C.3        1 MOL1        -0.1435
       9    H6      19.298694   20.871662   20.971920 H          1 MOL1         0.0948
      10    H7      18.296823   19.426864   20.987180 H          1 MOL1         0.0948
      11    C4      19.236842   19.887391   22.897871 C.3        1 MOL1        -0.1435
      12    H8      18.442106   20.574158   23.220358 H          1 MOL1         0.0948
      13    H9      20.182476   20.319605   23.251404 H          1 MOL1         0.0948
      14    C5      19.003871   18.503005   23.553792 C.3        1 MOL1        -0.1435
      15    H10     18.105817   18.044732   23.117281 H          1 MOL1         0.0948
      16    H11     19.834303   17.825694   23.318838 H          1 MOL1         0.0948
      17    C6      18.816888   18.583555   25.090762 C.3        1 MOL1        -0.1500
      18    H12     18.647468   17.572312   25.483761 H          1 MOL1         0.0948
      19    H13     17.898925   19.148764   25.299261 H          1 MOL1         0.0948
      20    C7      19.988321   19.240470   25.858412 C.3        1 MOL1         0.1162
      21    H14     20.140733   20.247703   25.459588 H          1 MOL1         0.0910
      22    C8      21.299614   18.450468   25.699957 C.3        1 MOL1        -0.2491
      23    H15     21.180452   17.412704   26.035332 H          1 MOL1         0.0959
      24    H16     21.632897   18.438345   24.655662 H          1 MOL1         0.0959
      25    H17     22.101359   18.909542   26.291335 H          1 MOL1         0.0959
      26    N1      19.654410   19.409965   27.314367 N.4        1 MOL1        -0.5987
      27    H18     18.806786   19.969914   27.444228 H          1 MOL1         0.3605
      28    H19     20.410829   19.880586   27.819370 H          1 MOL1         0.3605
      29    H20     19.499054   18.506582   27.769889 H          1 MOL1         0.3605
@<TRIPOS>BOND
    1     1     2    1
    2     1     3    1
    3     1     4    1
    4     1     5    1
    5     5     6    1
    6     5     7    1
    7     5     8    1
    8     8     9    1
    9     8    10    1
   10     8    11    1
   11    11    12    1
   12    11    13    1
   13    11    14    1
   14    14    15    1
   15    14    16    1
   16    14    17    1
   17    17    18    1
   18    17    19    1
   19    17    20    1
   20    20    21    1
   21    20    22    1
   22    22    23    1
   23    22    24    1
   24    22    25    1
   25    20    26    1
   26    26    27    1
   27    26    28    1
   28    26    29    1
@<TRIPOS>SUBSTRUCTURE
       1 MOL1            1 RESIDUE      1      MOL     
@<SCITEGIC>MOL_PROPERTY
VM2 Rank
SciTegic.value.IntegerValue
35

@<SCITEGIC>MOL_PROPERTY
Conf_Id
SciTegic.value.IntegerValue
232

@<SCITEGIC>MOL_PROPERTY
Probability
SciTegic.value.DoubleValue
0.93

@<SCITEGIC>MOL_PROPERTY
Sum Probability
SciTegic.value.DoubleValue
82.22

@<SCITEGIC>MOL_PROPERTY
Delta G
SciTegic.value.DoubleValue
1.456

@<SCITEGIC>MOL_PROPERTY
G
SciTegic.value.DoubleValue
35.158

@<SCITEGIC>MOL_PROPERTY
E
SciTegic.value.DoubleValue
-2.630

@<SCITEGIC>MOL_PROPERTY
-TS
SciTegic.value.DoubleValue
37.788

@<SCITEGIC>MOL_PROPERTY
U+W
SciTegic.value.DoubleValue
-26.774

@<SCITEGIC>MOL_PROPERTY
U
SciTegic.value.DoubleValue
25.505

@<SCITEGIC>MOL_PROPERTY
W
SciTegic.value.DoubleValue
-52.279

@<SCITEGIC>MOL_PROPERTY
W(PB)
SciTegic.value.DoubleValue
-54.762

@<SCITEGIC>MOL_PROPERTY
W(SA)
SciTegic.value.DoubleValue
2.483

@<SCITEGIC>MOL_PROPERTY
Valence
SciTegic.value.DoubleValue
4.470

@<SCITEGIC>MOL_PROPERTY
Coulomb
SciTegic.value.DoubleValue
19.979

@<SCITEGIC>MOL_PROPERTY
VdW
SciTegic.value.DoubleValue
1.055

@<SCITEGIC>MOL_PROPERTY
VdW6
SciTegic.value.DoubleValue
-9.825

@<SCITEGIC>MOL_PROPERTY
VdW12
SciTegic.value.DoubleValue
10.880

@<SCITEGIC>MOL_PROPERTY
Bond
SciTegic.value.DoubleValue
0.267

@<SCITEGIC>MOL_PROPERTY
Angle
SciTegic.value.DoubleValue
1.632

@<SCITEGIC>MOL_PROPERTY
Pdih
SciTegic.value.DoubleValue
2.571

@<SCITEGIC>MOL_PROPERTY
Idih
SciTegic.value.DoubleValue
0.000

@<SCITEGIC>MOL_PROPERTY
Tether
SciTegic.value.DoubleValue
0.000

@<TRIPOS>MOLECULE
guest-s15_vm2.mol2 : vm2 ligand conformer 36
          29          28           1
SMALL
USER_CHARGES
 
@<TRIPOS>ATOM
       1    C1      19.156592   20.100011   19.340709 C.3        1 MOL1        -0.2426
       2    H1      20.069629   20.558376   18.938847 H          1 MOL1         0.0959
       3    H2      19.008665   19.135079   18.838438 H          1 MOL1         0.0959
       4    H3      18.310801   20.749229   19.079581 H          1 MOL1         0.0959
       5    C2      19.252890   19.919421   20.870420 C.3        1 MOL1        -0.1410
       6    H4      18.308499   19.497586   21.238951 H          1 MOL1         0.0948
       7    H5      19.370936   20.902968   21.346118 H          1 MOL1         0.0948
       8    C3      20.436470   19.003754   21.262391 C.3        1 MOL1        -0.1435
       9    H6      20.292290   18.005077   20.827554 H          1 MOL1         0.0948
      10    H7      21.358712   19.402858   20.817979 H          1 MOL1         0.0948
      11    C4      20.642765   18.879790   22.791726 C.3        1 MOL1        -0.1435
      12    H8      20.806440   19.879657   23.215175 H          1 MOL1         0.0948
      13    H9      21.565972   18.312169   22.972798 H          1 MOL1         0.0948
      14    C5      19.468125   18.175455   23.516615 C.3        1 MOL1        -0.1435
      15    H10     18.552511   18.773286   23.426701 H          1 MOL1         0.0948
      16    H11     19.258727   17.219669   23.016842 H          1 MOL1         0.0948
      17    C6      19.759948   17.894301   25.012799 C.3        1 MOL1        -0.1500
      18    H12     20.611569   17.204552   25.083143 H          1 MOL1         0.0948
      19    H13     18.902319   17.367911   25.452406 H          1 MOL1         0.0948
      20    C7      20.066401   19.158817   25.846172 C.3        1 MOL1         0.1162
      21    H14     20.933850   19.659665   25.406286 H          1 MOL1         0.0910
      22    C8      20.417410   18.774515   27.292127 C.3        1 MOL1        -0.2491
      23    H15     19.575998   18.271308   27.784797 H          1 MOL1         0.0959
      24    H16     21.281517   18.098901   27.316757 H          1 MOL1         0.0959
      25    H17     20.674269   19.664985   27.879041 H          1 MOL1         0.0959
      26    N1      18.935400   20.149936   25.821042 N.4        1 MOL1        -0.5987
      27    H18     18.083074   19.752527   26.224926 H          1 MOL1         0.3605
      28    H19     18.718120   20.440216   24.863775 H          1 MOL1         0.3605
      29    H20     19.164275   20.993243   26.354975 H          1 MOL1         0.3605
@<TRIPOS>BOND
    1     1     2    1
    2     1     3    1
    3     1     4    1
    4     1     5    1
    5     5     6    1
    6     5     7    1
    7     5     8    1
    8     8     9    1
    9     8    10    1
   10     8    11    1
   11    11    12    1
   12    11    13    1
   13    11    14    1
   14    14    15    1
   15    14    16    1
   16    14    17    1
   17    17    18    1
   18    17    19    1
   19    17    20    1
   20    20    21    1
   21    20    22    1
   22    22    23    1
   23    22    24    1
   24    22    25    1
   25    20    26    1
   26    26    27    1
   27    26    28    1
   28    26    29    1
@<TRIPOS>SUBSTRUCTURE
       1 MOL1            1 RESIDUE      1      MOL     
@<SCITEGIC>MOL_PROPERTY
VM2 Rank
SciTegic.value.IntegerValue
36

@<SCITEGIC>MOL_PROPERTY
Conf_Id
SciTegic.value.IntegerValue
328

@<SCITEGIC>MOL_PROPERTY
Probability
SciTegic.value.DoubleValue
0.92

@<SCITEGIC>MOL_PROPERTY
Sum Probability
SciTegic.value.DoubleValue
83.13

@<SCITEGIC>MOL_PROPERTY
Delta G
SciTegic.value.DoubleValue
1.463

@<SCITEGIC>MOL_PROPERTY
G
SciTegic.value.DoubleValue
35.165

@<SCITEGIC>MOL_PROPERTY
E
SciTegic.value.DoubleValue
-2.528

@<SCITEGIC>MOL_PROPERTY
-TS
SciTegic.value.DoubleValue
37.693

@<SCITEGIC>MOL_PROPERTY
U+W
SciTegic.value.DoubleValue
-26.673

@<SCITEGIC>MOL_PROPERTY
U
SciTegic.value.DoubleValue
25.640

@<SCITEGIC>MOL_PROPERTY
W
SciTegic.value.DoubleValue
-52.313

@<SCITEGIC>MOL_PROPERTY
W(PB)
SciTegic.value.DoubleValue
-54.801

@<SCITEGIC>MOL_PROPERTY
W(SA)
SciTegic.value.DoubleValue
2.488

@<SCITEGIC>MOL_PROPERTY
Valence
SciTegic.value.DoubleValue
3.984

@<SCITEGIC>MOL_PROPERTY
Coulomb
SciTegic.value.DoubleValue
20.666

@<SCITEGIC>MOL_PROPERTY
VdW
SciTegic.value.DoubleValue
0.990

@<SCITEGIC>MOL_PROPERTY
VdW6
SciTegic.value.DoubleValue
-9.569

@<SCITEGIC>MOL_PROPERTY
VdW12
SciTegic.value.DoubleValue
10.559

@<SCITEGIC>MOL_PROPERTY
Bond
SciTegic.value.DoubleValue
0.256

@<SCITEGIC>MOL_PROPERTY
Angle
SciTegic.value.DoubleValue
1.314

@<SCITEGIC>MOL_PROPERTY
Pdih
SciTegic.value.DoubleValue
2.414

@<SCITEGIC>MOL_PROPERTY
Idih
SciTegic.value.DoubleValue
0.000

@<SCITEGIC>MOL_PROPERTY
Tether
SciTegic.value.DoubleValue
0.000

@<TRIPOS>MOLECULE
guest-s15_vm2.mol2 : vm2 ligand conformer 37
          29          28           1
SMALL
USER_CHARGES
 
@<TRIPOS>ATOM
       1    C1      18.267273   19.078128   19.981882 C.3        1 MOL1        -0.2426
       2    H1      18.812063   18.913227   19.043149 H          1 MOL1         0.0959
       3    H2      17.865610   18.113418   20.318348 H          1 MOL1         0.0959
       4    H3      17.418550   19.740291   19.766905 H          1 MOL1         0.0959
       5    C2      19.185642   19.700449   21.054724 C.3        1 MOL1        -0.1410
       6    H4      18.596832   19.886604   21.962649 H          1 MOL1         0.0948
       7    H5      19.548083   20.676520   20.703268 H          1 MOL1         0.0948
       8    C3      20.388010   18.782650   21.377784 C.3        1 MOL1        -0.1435
       9    H6      20.027380   17.821581   21.767466 H          1 MOL1         0.0948
      10    H7      20.918552   18.548613   20.444546 H          1 MOL1         0.0948
      11    C4      21.401054   19.411412   22.369203 C.3        1 MOL1        -0.1435
      12    H8      21.840596   20.306965   21.908798 H          1 MOL1         0.0948
      13    H9      22.233827   18.709559   22.514284 H          1 MOL1         0.0948
      14    C5      20.821419   19.797074   23.754605 C.3        1 MOL1        -0.1435
      15    H10     21.631734   20.225604   24.360596 H          1 MOL1         0.0948
      16    H11     20.078923   20.595897   23.633128 H          1 MOL1         0.0948
      17    C6      20.201402   18.599096   24.517905 C.3        1 MOL1        -0.1500
      18    H12     20.931003   17.778819   24.543712 H          1 MOL1         0.0948
      19    H13     19.322097   18.222549   23.979905 H          1 MOL1         0.0948
      20    C7      19.799044   18.954510   25.965242 C.3        1 MOL1         0.1162
      21    H14     20.682145   19.344069   26.480992 H          1 MOL1         0.0910
      22    C8      19.319332   17.698821   26.710424 C.3        1 MOL1        -0.2491
      23    H15     20.103425   16.931551   26.726125 H          1 MOL1         0.0959
      24    H16     19.066686   17.937551   27.750891 H          1 MOL1         0.0959
      25    H17     18.430093   17.268905   26.232548 H          1 MOL1         0.0959
      26    N1      18.752824   20.033860   26.022230 N.4        1 MOL1        -0.5987
      27    H18     19.075992   20.891310   25.566185 H          1 MOL1         0.3605
      28    H19     18.514039   20.272146   26.989120 H          1 MOL1         0.3605
      29    H20     17.889863   19.741590   25.556102 H          1 MOL1         0.3605
@<TRIPOS>BOND
    1     1     2    1
    2     1     3    1
    3     1     4    1
    4     1     5    1
    5     5     6    1
    6     5     7    1
    7     5     8    1
    8     8     9    1
    9     8    10    1
   10     8    11    1
   11    11    12    1
   12    11    13    1
   13    11    14    1
   14    14    15    1
   15    14    16    1
   16    14    17    1
   17    17    18    1
   18    17    19    1
   19    17    20    1
   20    20    21    1
   21    20    22    1
   22    22    23    1
   23    22    24    1
   24    22    25    1
   25    20    26    1
   26    26    27    1
   27    26    28    1
   28    26    29    1
@<TRIPOS>SUBSTRUCTURE
       1 MOL1            1 RESIDUE      1      MOL     
@<SCITEGIC>MOL_PROPERTY
VM2 Rank
SciTegic.value.IntegerValue
37

@<SCITEGIC>MOL_PROPERTY
Conf_Id
SciTegic.value.IntegerValue
571

@<SCITEGIC>MOL_PROPERTY
Probability
SciTegic.value.DoubleValue
0.89

@<SCITEGIC>MOL_PROPERTY
Sum Probability
SciTegic.value.DoubleValue
84.02

@<SCITEGIC>MOL_PROPERTY
Delta G
SciTegic.value.DoubleValue
1.483

@<SCITEGIC>MOL_PROPERTY
G
SciTegic.value.DoubleValue
35.185

@<SCITEGIC>MOL_PROPERTY
E
SciTegic.value.DoubleValue
-2.661

@<SCITEGIC>MOL_PROPERTY
-TS
SciTegic.value.DoubleValue
37.846

@<SCITEGIC>MOL_PROPERTY
U+W
SciTegic.value.DoubleValue
-26.806

@<SCITEGIC>MOL_PROPERTY
U
SciTegic.value.DoubleValue
25.620

@<SCITEGIC>MOL_PROPERTY
W
SciTegic.value.DoubleValue
-52.426

@<SCITEGIC>MOL_PROPERTY
W(PB)
SciTegic.value.DoubleValue
-54.911

@<SCITEGIC>MOL_PROPERTY
W(SA)
SciTegic.value.DoubleValue
2.485

@<SCITEGIC>MOL_PROPERTY
Valence
SciTegic.value.DoubleValue
4.137

@<SCITEGIC>MOL_PROPERTY
Coulomb
SciTegic.value.DoubleValue
20.478

@<SCITEGIC>MOL_PROPERTY
VdW
SciTegic.value.DoubleValue
1.005

@<SCITEGIC>MOL_PROPERTY
VdW6
SciTegic.value.DoubleValue
-9.764

@<SCITEGIC>MOL_PROPERTY
VdW12
SciTegic.value.DoubleValue
10.769

@<SCITEGIC>MOL_PROPERTY
Bond
SciTegic.value.DoubleValue
0.272

@<SCITEGIC>MOL_PROPERTY
Angle
SciTegic.value.DoubleValue
1.510

@<SCITEGIC>MOL_PROPERTY
Pdih
SciTegic.value.DoubleValue
2.355

@<SCITEGIC>MOL_PROPERTY
Idih
SciTegic.value.DoubleValue
0.000

@<SCITEGIC>MOL_PROPERTY
Tether
SciTegic.value.DoubleValue
0.000

@<TRIPOS>MOLECULE
guest-s15_vm2.mol2 : vm2 ligand conformer 38
          29          28           1
SMALL
USER_CHARGES
 
@<TRIPOS>ATOM
       1    C1      19.417974   20.442440   19.856632 C.3        1 MOL1        -0.2426
       2    H1      19.126765   21.082697   20.698499 H          1 MOL1         0.0959
       3    H2      19.772583   21.098130   19.050874 H          1 MOL1         0.0959
       4    H3      18.522655   19.920190   19.495125 H          1 MOL1         0.0959
       5    C2      20.521037   19.438675   20.261813 C.3        1 MOL1        -0.1410
       6    H4      21.393321   19.984247   20.648057 H          1 MOL1         0.0948
       7    H5      20.863914   18.907467   19.362921 H          1 MOL1         0.0948
       8    C3      20.051212   18.396665   21.305300 C.3        1 MOL1        -0.1435
       9    H6      19.194080   17.837805   20.905019 H          1 MOL1         0.0948
      10    H7      20.856468   17.663864   21.453147 H          1 MOL1         0.0948
      11    C4      19.677117   19.018596   22.671834 C.3        1 MOL1        -0.1435
      12    H8      18.821995   19.696585   22.551711 H          1 MOL1         0.0948
      13    H9      20.518790   19.623985   23.033436 H          1 MOL1         0.0948
      14    C5      19.320260   17.932921   23.715134 C.3        1 MOL1        -0.1435
      15    H10     18.517011   17.299691   23.313774 H          1 MOL1         0.0948
      16    H11     20.179752   17.267323   23.869881 H          1 MOL1         0.0948
      17    C6      18.850691   18.519788   25.071345 C.3        1 MOL1        -0.1500
      18    H12     18.603281   17.693898   25.751385 H          1 MOL1         0.0948
      19    H13     17.914099   19.068321   24.905497 H          1 MOL1         0.0948
      20    C7      19.861994   19.464565   25.762536 C.3        1 MOL1         0.1162
      21    H14     20.093948   20.284203   25.076142 H          1 MOL1         0.0910
      22    C8      21.173682   18.744550   26.122464 C.3        1 MOL1        -0.2491
      23    H15     21.853994   19.422483   26.652424 H          1 MOL1         0.0959
      24    H16     20.985976   17.877340   26.767715 H          1 MOL1         0.0959
      25    H17     21.696377   18.397611   25.223485 H          1 MOL1         0.0959
      26    N1      19.262034   20.097800   26.986942 N.4        1 MOL1        -0.5987
      27    H18     19.913723   20.754451   27.426033 H          1 MOL1         0.3605
      28    H19     19.017309   19.394817   27.689561 H          1 MOL1         0.3605
      29    H20     18.409259   20.618771   26.762805 H          1 MOL1         0.3605
@<TRIPOS>BOND
    1     1     2    1
    2     1     3    1
    3     1     4    1
    4     1     5    1
    5     5     6    1
    6     5     7    1
    7     5     8    1
    8     8     9    1
    9     8    10    1
   10     8    11    1
   11    11    12    1
   12    11    13    1
   13    11    14    1
   14    14    15    1
   15    14    16    1
   16    14    17    1
   17    17    18    1
   18    17    19    1
   19    17    20    1
   20    20    21    1
   21    20    22    1
   22    22    23    1
   23    22    24    1
   24    22    25    1
   25    20    26    1
   26    26    27    1
   27    26    28    1
   28    26    29    1
@<TRIPOS>SUBSTRUCTURE
       1 MOL1            1 RESIDUE      1      MOL     
@<SCITEGIC>MOL_PROPERTY
VM2 Rank
SciTegic.value.IntegerValue
38

@<SCITEGIC>MOL_PROPERTY
Conf_Id
SciTegic.value.IntegerValue
1353

@<SCITEGIC>MOL_PROPERTY
Probability
SciTegic.value.DoubleValue
0.88

@<SCITEGIC>MOL_PROPERTY
Sum Probability
SciTegic.value.DoubleValue
84.90

@<SCITEGIC>MOL_PROPERTY
Delta G
SciTegic.value.DoubleValue
1.484

@<SCITEGIC>MOL_PROPERTY
G
SciTegic.value.DoubleValue
35.186

@<SCITEGIC>MOL_PROPERTY
E
SciTegic.value.DoubleValue
-2.602

@<SCITEGIC>MOL_PROPERTY
-TS
SciTegic.value.DoubleValue
37.789

@<SCITEGIC>MOL_PROPERTY
U+W
SciTegic.value.DoubleValue
-26.747

@<SCITEGIC>MOL_PROPERTY
U
SciTegic.value.DoubleValue
25.489

@<SCITEGIC>MOL_PROPERTY
W
SciTegic.value.DoubleValue
-52.236

@<SCITEGIC>MOL_PROPERTY
W(PB)
SciTegic.value.DoubleValue
-54.720

@<SCITEGIC>MOL_PROPERTY
W(SA)
SciTegic.value.DoubleValue
2.485

@<SCITEGIC>MOL_PROPERTY
Valence
SciTegic.value.DoubleValue
4.461

@<SCITEGIC>MOL_PROPERTY
Coulomb
SciTegic.value.DoubleValue
19.910

@<SCITEGIC>MOL_PROPERTY
VdW
SciTegic.value.DoubleValue
1.118

@<SCITEGIC>MOL_PROPERTY
VdW6
SciTegic.value.DoubleValue
-9.713

@<SCITEGIC>MOL_PROPERTY
VdW12
SciTegic.value.DoubleValue
10.831

@<SCITEGIC>MOL_PROPERTY
Bond
SciTegic.value.DoubleValue
0.263

@<SCITEGIC>MOL_PROPERTY
Angle
SciTegic.value.DoubleValue
1.656

@<SCITEGIC>MOL_PROPERTY
Pdih
SciTegic.value.DoubleValue
2.542

@<SCITEGIC>MOL_PROPERTY
Idih
SciTegic.value.DoubleValue
0.000

@<SCITEGIC>MOL_PROPERTY
Tether
SciTegic.value.DoubleValue
0.000

@<TRIPOS>MOLECULE
guest-s15_vm2.mol2 : vm2 ligand conformer 39
          29          28           1
SMALL
USER_CHARGES
 
@<TRIPOS>ATOM
       1    C1      19.402454   20.555323   19.764558 C.3        1 MOL1        -0.2426
       2    H1      18.544963   20.005233   19.355472 H          1 MOL1         0.0959
       3    H2      19.018617   21.402168   20.348299 H          1 MOL1         0.0959
       4    H3      19.976782   20.960054   18.921129 H          1 MOL1         0.0959
       5    C2      20.286256   19.636950   20.634780 C.3        1 MOL1        -0.1410
       6    H4      21.151913   20.205623   21.002374 H          1 MOL1         0.0948
       7    H5      20.682937   18.819973   20.015867 H          1 MOL1         0.0948
       8    C3      19.500909   19.052816   21.829615 C.3        1 MOL1        -0.1435
       9    H6      19.101928   19.878437   22.433294 H          1 MOL1         0.0948
      10    H7      18.638402   18.482812   21.457657 H          1 MOL1         0.0948
      11    C4      20.387416   18.136274   22.706163 C.3        1 MOL1        -0.1435
      12    H8      21.230633   18.712524   23.109800 H          1 MOL1         0.0948
      13    H9      20.830540   17.355445   22.072742 H          1 MOL1         0.0948
      14    C5      19.614468   17.447835   23.860521 C.3        1 MOL1        -0.1435
      15    H10     18.843310   16.792135   23.433342 H          1 MOL1         0.0948
      16    H11     20.300614   16.781699   24.400409 H          1 MOL1         0.0948
      17    C6      18.940316   18.419674   24.866030 C.3        1 MOL1        -0.1500
      18    H12     18.482940   17.834256   25.674588 H          1 MOL1         0.0948
      19    H13     18.109837   18.929825   24.361681 H          1 MOL1         0.0948
      20    C7      19.883523   19.482529   25.476188 C.3        1 MOL1         0.1162
      21    H14     20.342167   20.046094   24.658224 H          1 MOL1         0.0910
      22    C8      21.003174   18.844031   26.317059 C.3        1 MOL1        -0.2491
      23    H15     20.589706   18.230108   27.126855 H          1 MOL1         0.0959
      24    H16     21.650227   18.208705   25.701119 H          1 MOL1         0.0959
      25    H17     21.638233   19.617446   26.766260 H          1 MOL1         0.0959
      26    N1      19.117483   20.480569   26.299086 N.4        1 MOL1        -0.5987
      27    H18     18.393253   20.948754   25.746807 H          1 MOL1         0.3605
      28    H19     19.733470   21.207980   26.673399 H          1 MOL1         0.3605
      29    H20     18.655812   20.032407   27.095176 H          1 MOL1         0.3605
@<TRIPOS>BOND
    1     1     2    1
    2     1     3    1
    3     1     4    1
    4     1     5    1
    5     5     6    1
    6     5     7    1
    7     5     8    1
    8     8     9    1
    9     8    10    1
   10     8    11    1
   11    11    12    1
   12    11    13    1
   13    11    14    1
   14    14    15    1
   15    14    16    1
   16    14    17    1
   17    17    18    1
   18    17    19    1
   19    17    20    1
   20    20    21    1
   21    20    22    1
   22    22    23    1
   23    22    24    1
   24    22    25    1
   25    20    26    1
   26    26    27    1
   27    26    28    1
   28    26    29    1
@<TRIPOS>SUBSTRUCTURE
       1 MOL1            1 RESIDUE      1      MOL     
@<SCITEGIC>MOL_PROPERTY
VM2 Rank
SciTegic.value.IntegerValue
39

@<SCITEGIC>MOL_PROPERTY
Conf_Id
SciTegic.value.IntegerValue
228

@<SCITEGIC>MOL_PROPERTY
Probability
SciTegic.value.DoubleValue
0.86

@<SCITEGIC>MOL_PROPERTY
Sum Probability
SciTegic.value.DoubleValue
85.76

@<SCITEGIC>MOL_PROPERTY
Delta G
SciTegic.value.DoubleValue
1.504

@<SCITEGIC>MOL_PROPERTY
G
SciTegic.value.DoubleValue
35.206

@<SCITEGIC>MOL_PROPERTY
E
SciTegic.value.DoubleValue
-2.772

@<SCITEGIC>MOL_PROPERTY
-TS
SciTegic.value.DoubleValue
37.978

@<SCITEGIC>MOL_PROPERTY
U+W
SciTegic.value.DoubleValue
-26.917

@<SCITEGIC>MOL_PROPERTY
U
SciTegic.value.DoubleValue
25.708

@<SCITEGIC>MOL_PROPERTY
W
SciTegic.value.DoubleValue
-52.624

@<SCITEGIC>MOL_PROPERTY
W(PB)
SciTegic.value.DoubleValue
-55.091

@<SCITEGIC>MOL_PROPERTY
W(SA)
SciTegic.value.DoubleValue
2.466

@<SCITEGIC>MOL_PROPERTY
Valence
SciTegic.value.DoubleValue
4.405

@<SCITEGIC>MOL_PROPERTY
Coulomb
SciTegic.value.DoubleValue
20.450

@<SCITEGIC>MOL_PROPERTY
VdW
SciTegic.value.DoubleValue
0.853

@<SCITEGIC>MOL_PROPERTY
VdW6
SciTegic.value.DoubleValue
-10.192

@<SCITEGIC>MOL_PROPERTY
VdW12
SciTegic.value.DoubleValue
11.045

@<SCITEGIC>MOL_PROPERTY
Bond
SciTegic.value.DoubleValue
0.273

@<SCITEGIC>MOL_PROPERTY
Angle
SciTegic.value.DoubleValue
1.693

@<SCITEGIC>MOL_PROPERTY
Pdih
SciTegic.value.DoubleValue
2.439

@<SCITEGIC>MOL_PROPERTY
Idih
SciTegic.value.DoubleValue
0.000

@<SCITEGIC>MOL_PROPERTY
Tether
SciTegic.value.DoubleValue
0.000

@<TRIPOS>MOLECULE
guest-s15_vm2.mol2 : vm2 ligand conformer 40
          29          28           1
SMALL
USER_CHARGES
 
@<TRIPOS>ATOM
       1    C1      19.995860   19.211633   18.997224 C.3        1 MOL1        -0.2426
       2    H1      20.243881   20.239578   18.702191 H          1 MOL1         0.0959
       3    H2      20.910361   18.607522   18.934084 H          1 MOL1         0.0959
       4    H3      19.278821   18.815324   18.266585 H          1 MOL1         0.0959
       5    C2      19.401814   19.170522   20.421116 C.3        1 MOL1        -0.1410
       6    H4      19.129117   18.134765   20.662382 H          1 MOL1         0.0948
       7    H5      18.474045   19.759000   20.445616 H          1 MOL1         0.0948
       8    C3      20.397442   19.720690   21.469598 C.3        1 MOL1        -0.1435
       9    H6      21.302551   19.097975   21.484161 H          1 MOL1         0.0948
      10    H7      20.719654   20.724764   21.160817 H          1 MOL1         0.0948
      11    C4      19.808286   19.814367   22.898561 C.3        1 MOL1        -0.1435
      12    H8      18.903727   20.437819   22.882864 H          1 MOL1         0.0948
      13    H9      20.535786   20.340720   23.530202 H          1 MOL1         0.0948
      14    C5      19.482762   18.434661   23.525095 C.3        1 MOL1        -0.1435
      15    H10     18.740342   17.915581   22.905577 H          1 MOL1         0.0948
      16    H11     20.379227   17.800859   23.517254 H          1 MOL1         0.0948
      17    C6      18.914251   18.536011   24.964429 C.3        1 MOL1        -0.1500
      18    H12     18.682687   17.525852   25.327390 H          1 MOL1         0.0948
      19    H13     17.956117   19.070531   24.921286 H          1 MOL1         0.0948
      20    C7      19.831647   19.245791   25.988218 C.3        1 MOL1         0.1162
      21    H14     20.043960   20.254387   25.621902 H          1 MOL1         0.0910
      22    C8      21.167380   18.505734   26.179504 C.3        1 MOL1        -0.2491
      23    H15     21.004107   17.467067   26.492794 H          1 MOL1         0.0959
      24    H16     21.753487   18.497637   25.253141 H          1 MOL1         0.0959
      25    H17     21.777336   19.000576   26.945248 H          1 MOL1         0.0959
      26    N1      19.136558   19.416591   27.310253 N.4        1 MOL1        -0.5987
      27    H18     18.903552   18.512422   27.729688 H          1 MOL1         0.3605
      28    H19     18.264356   19.944383   27.212374 H          1 MOL1         0.3605
      29    H20     19.724618   19.921327   27.979669 H          1 MOL1         0.3605
@<TRIPOS>BOND
    1     1     2    1
    2     1     3    1
    3     1     4    1
    4     1     5    1
    5     5     6    1
    6     5     7    1
    7     5     8    1
    8     8     9    1
    9     8    10    1
   10     8    11    1
   11    11    12    1
   12    11    13    1
   13    11    14    1
   14    14    15    1
   15    14    16    1
   16    14    17    1
   17    17    18    1
   18    17    19    1
   19    17    20    1
   20    20    21    1
   21    20    22    1
   22    22    23    1
   23    22    24    1
   24    22    25    1
   25    20    26    1
   26    26    27    1
   27    26    28    1
   28    26    29    1
@<TRIPOS>SUBSTRUCTURE
       1 MOL1            1 RESIDUE      1      MOL     
@<SCITEGIC>MOL_PROPERTY
VM2 Rank
SciTegic.value.IntegerValue
40

@<SCITEGIC>MOL_PROPERTY
Conf_Id
SciTegic.value.IntegerValue
306

@<SCITEGIC>MOL_PROPERTY
Probability
SciTegic.value.DoubleValue
0.68

@<SCITEGIC>MOL_PROPERTY
Sum Probability
SciTegic.value.DoubleValue
86.44

@<SCITEGIC>MOL_PROPERTY
Delta G
SciTegic.value.DoubleValue
1.637

@<SCITEGIC>MOL_PROPERTY
G
SciTegic.value.DoubleValue
35.339

@<SCITEGIC>MOL_PROPERTY
E
SciTegic.value.DoubleValue
-2.400

@<SCITEGIC>MOL_PROPERTY
-TS
SciTegic.value.DoubleValue
37.739

@<SCITEGIC>MOL_PROPERTY
U+W
SciTegic.value.DoubleValue
-26.545

@<SCITEGIC>MOL_PROPERTY
U
SciTegic.value.DoubleValue
25.622

@<SCITEGIC>MOL_PROPERTY
W
SciTegic.value.DoubleValue
-52.167

@<SCITEGIC>MOL_PROPERTY
W(PB)
SciTegic.value.DoubleValue
-54.631

@<SCITEGIC>MOL_PROPERTY
W(SA)
SciTegic.value.DoubleValue
2.464

@<SCITEGIC>MOL_PROPERTY
Valence
SciTegic.value.DoubleValue
4.553

@<SCITEGIC>MOL_PROPERTY
Coulomb
SciTegic.value.DoubleValue
19.890

@<SCITEGIC>MOL_PROPERTY
VdW
SciTegic.value.DoubleValue
1.179

@<SCITEGIC>MOL_PROPERTY
VdW6
SciTegic.value.DoubleValue
-9.673

@<SCITEGIC>MOL_PROPERTY
VdW12
SciTegic.value.DoubleValue
10.852

@<SCITEGIC>MOL_PROPERTY
Bond
SciTegic.value.DoubleValue
0.276

@<SCITEGIC>MOL_PROPERTY
Angle
SciTegic.value.DoubleValue
1.749

@<SCITEGIC>MOL_PROPERTY
Pdih
SciTegic.value.DoubleValue
2.528

@<SCITEGIC>MOL_PROPERTY
Idih
SciTegic.value.DoubleValue
0.000

@<SCITEGIC>MOL_PROPERTY
Tether
SciTegic.value.DoubleValue
0.000

@<TRIPOS>MOLECULE
guest-s15_vm2.mol2 : vm2 ligand conformer 41
          29          28           1
SMALL
USER_CHARGES
 
@<TRIPOS>ATOM
       1    C1      21.002568   18.926613   19.785478 C.3        1 MOL1        -0.2426
       2    H1      21.490312   18.003890   19.445342 H          1 MOL1         0.0959
       3    H2      20.464001   19.357491   18.931372 H          1 MOL1         0.0959
       4    H3      21.788032   19.632290   20.085928 H          1 MOL1         0.0959
       5    C2      20.041930   18.634880   20.957540 C.3        1 MOL1        -0.1410
       6    H4      20.608767   18.169462   21.774846 H          1 MOL1         0.0948
       7    H5      19.285945   17.904687   20.636765 H          1 MOL1         0.0948
       8    C3      19.345124   19.922180   21.457469 C.3        1 MOL1        -0.1435
       9    H6      20.097785   20.636229   21.816757 H          1 MOL1         0.0948
      10    H7      18.848455   20.411447   20.608286 H          1 MOL1         0.0948
      11    C4      18.285061   19.667400   22.560286 C.3        1 MOL1        -0.1435
      12    H8      17.474660   19.056532   22.139261 H          1 MOL1         0.0948
      13    H9      17.825294   20.626560   22.835532 H          1 MOL1         0.0948
      14    C5      18.813063   18.975999   23.843887 C.3        1 MOL1        -0.1435
      15    H10     17.967487   18.848588   24.532212 H          1 MOL1         0.0948
      16    H11     19.158542   17.964049   23.598149 H          1 MOL1         0.0948
      17    C6      19.942580   19.772787   24.551762 C.3        1 MOL1        -0.1500
      18    H12     19.608979   20.806261   24.712449 H          1 MOL1         0.0948
      19    H13     20.818518   19.834891   23.893925 H          1 MOL1         0.0948
      20    C7      20.398019   19.186950   25.908918 C.3        1 MOL1         0.1162
      21    H14     21.176993   19.847058   26.302881 H          1 MOL1         0.0910
      22    C8      21.010607   17.783926   25.755238 C.3        1 MOL1        -0.2491
      23    H15     21.811309   17.788122   25.005263 H          1 MOL1         0.0959
      24    H16     21.446091   17.449553   26.704834 H          1 MOL1         0.0959
      25    H17     20.259621   17.044541   25.452574 H          1 MOL1         0.0959
      26    N1      19.297049   19.185264   26.933422 N.4        1 MOL1        -0.5987
      27    H18     18.526385   18.575579   26.649190 H          1 MOL1         0.3605
      28    H19     18.912760   20.124190   27.072777 H          1 MOL1         0.3605
      29    H20     19.632374   18.853492   27.842321 H          1 MOL1         0.3605
@<TRIPOS>BOND
    1     1     2    1
    2     1     3    1
    3     1     4    1
    4     1     5    1
    5     5     6    1
    6     5     7    1
    7     5     8    1
    8     8     9    1
    9     8    10    1
   10     8    11    1
   11    11    12    1
   12    11    13    1
   13    11    14    1
   14    14    15    1
   15    14    16    1
   16    14    17    1
   17    17    18    1
   18    17    19    1
   19    17    20    1
   20    20    21    1
   21    20    22    1
   22    22    23    1
   23    22    24    1
   24    22    25    1
   25    20    26    1
   26    26    27    1
   27    26    28    1
   28    26    29    1
@<TRIPOS>SUBSTRUCTURE
       1 MOL1            1 RESIDUE      1      MOL     
@<SCITEGIC>MOL_PROPERTY
VM2 Rank
SciTegic.value.IntegerValue
41

@<SCITEGIC>MOL_PROPERTY
Conf_Id
SciTegic.value.IntegerValue
989

@<SCITEGIC>MOL_PROPERTY
Probability
SciTegic.value.DoubleValue
0.63

@<SCITEGIC>MOL_PROPERTY
Sum Probability
SciTegic.value.DoubleValue
87.07

@<SCITEGIC>MOL_PROPERTY
Delta G
SciTegic.value.DoubleValue
1.686

@<SCITEGIC>MOL_PROPERTY
G
SciTegic.value.DoubleValue
35.387

@<SCITEGIC>MOL_PROPERTY
E
SciTegic.value.DoubleValue
-2.614

@<SCITEGIC>MOL_PROPERTY
-TS
SciTegic.value.DoubleValue
38.002

@<SCITEGIC>MOL_PROPERTY
U+W
SciTegic.value.DoubleValue
-26.759

@<SCITEGIC>MOL_PROPERTY
U
SciTegic.value.DoubleValue
25.698

@<SCITEGIC>MOL_PROPERTY
W
SciTegic.value.DoubleValue
-52.457

@<SCITEGIC>MOL_PROPERTY
W(PB)
SciTegic.value.DoubleValue
-54.884

@<SCITEGIC>MOL_PROPERTY
W(SA)
SciTegic.value.DoubleValue
2.427

@<SCITEGIC>MOL_PROPERTY
Valence
SciTegic.value.DoubleValue
4.638

@<SCITEGIC>MOL_PROPERTY
Coulomb
SciTegic.value.DoubleValue
19.916

@<SCITEGIC>MOL_PROPERTY
VdW
SciTegic.value.DoubleValue
1.144

@<SCITEGIC>MOL_PROPERTY
VdW6
SciTegic.value.DoubleValue
-10.434

@<SCITEGIC>MOL_PROPERTY
VdW12
SciTegic.value.DoubleValue
11.578

@<SCITEGIC>MOL_PROPERTY
Bond
SciTegic.value.DoubleValue
0.315

@<SCITEGIC>MOL_PROPERTY
Angle
SciTegic.value.DoubleValue
1.852

@<SCITEGIC>MOL_PROPERTY
Pdih
SciTegic.value.DoubleValue
2.471

@<SCITEGIC>MOL_PROPERTY
Idih
SciTegic.value.DoubleValue
0.000

@<SCITEGIC>MOL_PROPERTY
Tether
SciTegic.value.DoubleValue
0.000

@<TRIPOS>MOLECULE
guest-s15_vm2.mol2 : vm2 ligand conformer 42
          29          28           1
SMALL
USER_CHARGES
 
@<TRIPOS>ATOM
       1    C1      20.402428   20.730517   20.611334 C.3        1 MOL1        -0.2426
       2    H1      20.580754   21.208655   19.639486 H          1 MOL1         0.0959
       3    H2      19.565484   21.255378   21.088307 H          1 MOL1         0.0959
       4    H3      21.298405   20.878804   21.227975 H          1 MOL1         0.0959
       5    C2      20.097852   19.226668   20.426175 C.3        1 MOL1        -0.1410
       6    H4      20.908134   18.770542   19.840413 H          1 MOL1         0.0948
       7    H5      19.182035   19.105108   19.831031 H          1 MOL1         0.0948
       8    C3      19.959605   18.460570   21.763502 C.3        1 MOL1        -0.1435
       9    H6      19.855063   17.389097   21.544223 H          1 MOL1         0.0948
      10    H7      20.889208   18.571626   22.337061 H          1 MOL1         0.0948
      11    C4      18.749362   18.923217   22.613072 C.3        1 MOL1        -0.1435
      12    H8      17.845336   18.901218   21.989107 H          1 MOL1         0.0948
      13    H9      18.881902   19.968609   22.918603 H          1 MOL1         0.0948
      14    C5      18.502846   18.040954   23.864053 C.3        1 MOL1        -0.1435
      15    H10     17.609003   18.407062   24.386705 H          1 MOL1         0.0948
      16    H11     18.258239   17.020144   23.539605 H          1 MOL1         0.0948
      17    C6      19.691887   17.976013   24.859560 C.3        1 MOL1        -0.1500
      18    H12     20.524058   17.434988   24.391110 H          1 MOL1         0.0948
      19    H13     19.396090   17.375499   25.729980 H          1 MOL1         0.0948
      20    C7      20.190772   19.357721   25.337106 C.3        1 MOL1         0.1162
      21    H14     20.482345   19.940592   24.458248 H          1 MOL1         0.0910
      22    C8      21.424958   19.199769   26.238829 C.3        1 MOL1        -0.2491
      23    H15     22.232843   18.682740   25.706167 H          1 MOL1         0.0959
      24    H16     21.805913   20.180092   26.550609 H          1 MOL1         0.0959
      25    H17     21.186363   18.622829   27.141111 H          1 MOL1         0.0959
      26    N1      19.116291   20.140571   26.040368 N.4        1 MOL1        -0.5987
      27    H18     19.450401   21.066474   26.322510 H          1 MOL1         0.3605
      28    H19     18.797081   19.658592   26.884903 H          1 MOL1         0.3605
      29    H20     18.301372   20.276941   25.436150 H          1 MOL1         0.3605
@<TRIPOS>BOND
    1     1     2    1
    2     1     3    1
    3     1     4    1
    4     1     5    1
    5     5     6    1
    6     5     7    1
    7     5     8    1
    8     8     9    1
    9     8    10    1
   10     8    11    1
   11    11    12    1
   12    11    13    1
   13    11    14    1
   14    14    15    1
   15    14    16    1
   16    14    17    1
   17    17    18    1
   18    17    19    1
   19    17    20    1
   20    20    21    1
   21    20    22    1
   22    22    23    1
   23    22    24    1
   24    22    25    1
   25    20    26    1
   26    26    27    1
   27    26    28    1
   28    26    29    1
@<TRIPOS>SUBSTRUCTURE
       1 MOL1            1 RESIDUE      1      MOL     
@<SCITEGIC>MOL_PROPERTY
VM2 Rank
SciTegic.value.IntegerValue
42

@<SCITEGIC>MOL_PROPERTY
Conf_Id
SciTegic.value.IntegerValue
1247

@<SCITEGIC>MOL_PROPERTY
Probability
SciTegic.value.DoubleValue
0.62

@<SCITEGIC>MOL_PROPERTY
Sum Probability
SciTegic.value.DoubleValue
87.69

@<SCITEGIC>MOL_PROPERTY
Delta G
SciTegic.value.DoubleValue
1.699

@<SCITEGIC>MOL_PROPERTY
G
SciTegic.value.DoubleValue
35.401

@<SCITEGIC>MOL_PROPERTY
E
SciTegic.value.DoubleValue
-2.584

@<SCITEGIC>MOL_PROPERTY
-TS
SciTegic.value.DoubleValue
37.985

@<SCITEGIC>MOL_PROPERTY
U+W
SciTegic.value.DoubleValue
-26.729

@<SCITEGIC>MOL_PROPERTY
U
SciTegic.value.DoubleValue
25.699

@<SCITEGIC>MOL_PROPERTY
W
SciTegic.value.DoubleValue
-52.427

@<SCITEGIC>MOL_PROPERTY
W(PB)
SciTegic.value.DoubleValue
-54.859

@<SCITEGIC>MOL_PROPERTY
W(SA)
SciTegic.value.DoubleValue
2.432

@<SCITEGIC>MOL_PROPERTY
Valence
SciTegic.value.DoubleValue
4.391

@<SCITEGIC>MOL_PROPERTY
Coulomb
SciTegic.value.DoubleValue
20.476

@<SCITEGIC>MOL_PROPERTY
VdW
SciTegic.value.DoubleValue
0.832

@<SCITEGIC>MOL_PROPERTY
VdW6
SciTegic.value.DoubleValue
-10.723

@<SCITEGIC>MOL_PROPERTY
VdW12
SciTegic.value.DoubleValue
11.555

@<SCITEGIC>MOL_PROPERTY
Bond
SciTegic.value.DoubleValue
0.298

@<SCITEGIC>MOL_PROPERTY
Angle
SciTegic.value.DoubleValue
1.586

@<SCITEGIC>MOL_PROPERTY
Pdih
SciTegic.value.DoubleValue
2.506

@<SCITEGIC>MOL_PROPERTY
Idih
SciTegic.value.DoubleValue
0.000

@<SCITEGIC>MOL_PROPERTY
Tether
SciTegic.value.DoubleValue
0.000

@<TRIPOS>MOLECULE
guest-s15_vm2.mol2 : vm2 ligand conformer 43
          29          28           1
SMALL
USER_CHARGES
 
@<TRIPOS>ATOM
       1    C1      19.674778   20.581584   20.155155 C.3        1 MOL1        -0.2426
       2    H1      18.850016   20.327362   19.476860 H          1 MOL1         0.0959
       3    H2      19.247256   20.992266   21.078349 H          1 MOL1         0.0959
       4    H3      20.266157   21.376422   19.682571 H          1 MOL1         0.0959
       5    C2      20.558540   19.346711   20.441599 C.3        1 MOL1        -0.1410
       6    H4      21.363385   19.620105   21.136929 H          1 MOL1         0.0948
       7    H5      21.056713   19.044633   19.509825 H          1 MOL1         0.0948
       8    C3      19.764216   18.134477   20.991108 C.3        1 MOL1        -0.1435
       9    H6      19.048594   17.803141   20.226123 H          1 MOL1         0.0948
      10    H7      20.457284   17.294701   21.137864 H          1 MOL1         0.0948
      11    C4      18.995293   18.390122   22.313074 C.3        1 MOL1        -0.1435
      12    H8      18.464294   17.468152   22.587300 H          1 MOL1         0.0948
      13    H9      18.218483   19.149452   22.152730 H          1 MOL1         0.0948
      14    C5      19.908924   18.813466   23.488099 C.3        1 MOL1        -0.1435
      15    H10     20.711557   18.073113   23.600791 H          1 MOL1         0.0948
      16    H11     20.386910   19.775497   23.260942 H          1 MOL1         0.0948
      17    C6      19.115194   18.943152   24.811229 C.3        1 MOL1        -0.1500
      18    H12     18.692337   17.967936   25.086967 H          1 MOL1         0.0948
      19    H13     18.263516   19.615444   24.642727 H          1 MOL1         0.0948
      20    C7      19.951156   19.498441   25.986856 C.3        1 MOL1         0.1162
      21    H14     20.393167   20.449616   25.674585 H          1 MOL1         0.0910
      22    C8      21.087530   18.543141   26.393378 C.3        1 MOL1        -0.2491
      23    H15     21.816872   18.423520   25.583964 H          1 MOL1         0.0959
      24    H16     21.629761   18.935675   27.262429 H          1 MOL1         0.0959
      25    H17     20.697741   17.551547   26.655135 H          1 MOL1         0.0959
      26    N1      19.080371   19.804906   27.173501 N.4        1 MOL1        -0.5987
      27    H18     18.626882   18.960396   27.532548 H          1 MOL1         0.3605
      28    H19     18.341974   20.473931   26.936728 H          1 MOL1         0.3605
      29    H20     19.623568   20.210047   27.941297 H          1 MOL1         0.3605
@<TRIPOS>BOND
    1     1     2    1
    2     1     3    1
    3     1     4    1
    4     1     5    1
    5     5     6    1
    6     5     7    1
    7     5     8    1
    8     8     9    1
    9     8    10    1
   10     8    11    1
   11    11    12    1
   12    11    13    1
   13    11    14    1
   14    14    15    1
   15    14    16    1
   16    14    17    1
   17    17    18    1
   18    17    19    1
   19    17    20    1
   20    20    21    1
   21    20    22    1
   22    22    23    1
   23    22    24    1
   24    22    25    1
   25    20    26    1
   26    26    27    1
   27    26    28    1
   28    26    29    1
@<TRIPOS>SUBSTRUCTURE
       1 MOL1            1 RESIDUE      1      MOL     
@<SCITEGIC>MOL_PROPERTY
VM2 Rank
SciTegic.value.IntegerValue
43

@<SCITEGIC>MOL_PROPERTY
Conf_Id
SciTegic.value.IntegerValue
655

@<SCITEGIC>MOL_PROPERTY
Probability
SciTegic.value.DoubleValue
0.62

@<SCITEGIC>MOL_PROPERTY
Sum Probability
SciTegic.value.DoubleValue
88.31

@<SCITEGIC>MOL_PROPERTY
Delta G
SciTegic.value.DoubleValue
1.700

@<SCITEGIC>MOL_PROPERTY
G
SciTegic.value.DoubleValue
35.402

@<SCITEGIC>MOL_PROPERTY
E
SciTegic.value.DoubleValue
-2.432

@<SCITEGIC>MOL_PROPERTY
-TS
SciTegic.value.DoubleValue
37.834

@<SCITEGIC>MOL_PROPERTY
U+W
SciTegic.value.DoubleValue
-26.577

@<SCITEGIC>MOL_PROPERTY
U
SciTegic.value.DoubleValue
25.529

@<SCITEGIC>MOL_PROPERTY
W
SciTegic.value.DoubleValue
-52.105

@<SCITEGIC>MOL_PROPERTY
W(PB)
SciTegic.value.DoubleValue
-54.578

@<SCITEGIC>MOL_PROPERTY
W(SA)
SciTegic.value.DoubleValue
2.473

@<SCITEGIC>MOL_PROPERTY
Valence
SciTegic.value.DoubleValue
4.665

@<SCITEGIC>MOL_PROPERTY
Coulomb
SciTegic.value.DoubleValue
19.602

@<SCITEGIC>MOL_PROPERTY
VdW
SciTegic.value.DoubleValue
1.262

@<SCITEGIC>MOL_PROPERTY
VdW6
SciTegic.value.DoubleValue
-9.718

@<SCITEGIC>MOL_PROPERTY
VdW12
SciTegic.value.DoubleValue
10.979

@<SCITEGIC>MOL_PROPERTY
Bond
SciTegic.value.DoubleValue
0.278

@<SCITEGIC>MOL_PROPERTY
Angle
SciTegic.value.DoubleValue
1.798

@<SCITEGIC>MOL_PROPERTY
Pdih
SciTegic.value.DoubleValue
2.589

@<SCITEGIC>MOL_PROPERTY
Idih
SciTegic.value.DoubleValue
0.000

@<SCITEGIC>MOL_PROPERTY
Tether
SciTegic.value.DoubleValue
0.000

@<TRIPOS>MOLECULE
guest-s15_vm2.mol2 : vm2 ligand conformer 44
          29          28           1
SMALL
USER_CHARGES
 
@<TRIPOS>ATOM
       1    C1      19.444457   17.936564   20.146962 C.3        1 MOL1        -0.2426
       2    H1      18.973354   17.566598   21.066156 H          1 MOL1         0.0959
       3    H2      18.658858   18.341980   19.496256 H          1 MOL1         0.0959
       4    H3      19.893366   17.075166   19.635781 H          1 MOL1         0.0959
       5    C2      20.518418   19.004940   20.452255 C.3        1 MOL1        -0.1410
       6    H4      21.042068   19.256536   19.519452 H          1 MOL1         0.0948
       7    H5      21.281596   18.583236   21.119859 H          1 MOL1         0.0948
       8    C3      19.937193   20.308064   21.057817 C.3        1 MOL1        -0.1435
       9    H6      20.758378   21.019871   21.219346 H          1 MOL1         0.0948
      10    H7      19.274045   20.777402   20.318182 H          1 MOL1         0.0948
      11    C4      19.154613   20.132165   22.384862 C.3        1 MOL1        -0.1435
      12    H8      18.263953   19.512821   22.214883 H          1 MOL1         0.0948
      13    H9      18.781968   21.117260   22.697642 H          1 MOL1         0.0948
      14    C5      20.003223   19.526349   23.528409 C.3        1 MOL1        -0.1435
      15    H10     20.323257   18.515865   23.246482 H          1 MOL1         0.0948
      16    H11     20.913157   20.126287   23.667218 H          1 MOL1         0.0948
      17    C6      19.213124   19.469387   24.858914 C.3        1 MOL1        -0.1500
      18    H12     18.334140   18.821990   24.739856 H          1 MOL1         0.0948
      19    H13     18.831482   20.474396   25.082407 H          1 MOL1         0.0948
      20    C7      20.054512   18.987928   26.062964 C.3        1 MOL1         0.1162
      21    H14     20.945068   19.619966   26.134106 H          1 MOL1         0.0910
      22    C8      20.506269   17.524560   25.908258 C.3        1 MOL1        -0.2491
      23    H15     21.180698   17.403246   25.052820 H          1 MOL1         0.0959
      24    H16     21.051976   17.192558   26.800071 H          1 MOL1         0.0959
      25    H17     19.647221   16.856866   25.767072 H          1 MOL1         0.0959
      26    N1      19.304190   19.166042   27.353559 N.4        1 MOL1        -0.5987
      27    H18     19.030917   20.142255   27.499252 H          1 MOL1         0.3605
      28    H19     19.872243   18.885598   28.158154 H          1 MOL1         0.3605
      29    H20     18.450438   18.601629   27.370746 H          1 MOL1         0.3605
@<TRIPOS>BOND
    1     1     2    1
    2     1     3    1
    3     1     4    1
    4     1     5    1
    5     5     6    1
    6     5     7    1
    7     5     8    1
    8     8     9    1
    9     8    10    1
   10     8    11    1
   11    11    12    1
   12    11    13    1
   13    11    14    1
   14    14    15    1
   15    14    16    1
   16    14    17    1
   17    17    18    1
   18    17    19    1
   19    17    20    1
   20    20    21    1
   21    20    22    1
   22    22    23    1
   23    22    24    1
   24    22    25    1
   25    20    26    1
   26    26    27    1
   27    26    28    1
   28    26    29    1
@<TRIPOS>SUBSTRUCTURE
       1 MOL1            1 RESIDUE      1      MOL     
@<SCITEGIC>MOL_PROPERTY
VM2 Rank
SciTegic.value.IntegerValue
44

@<SCITEGIC>MOL_PROPERTY
Conf_Id
SciTegic.value.IntegerValue
1341

@<SCITEGIC>MOL_PROPERTY
Probability
SciTegic.value.DoubleValue
0.58

@<SCITEGIC>MOL_PROPERTY
Sum Probability
SciTegic.value.DoubleValue
88.89

@<SCITEGIC>MOL_PROPERTY
Delta G
SciTegic.value.DoubleValue
1.735

@<SCITEGIC>MOL_PROPERTY
G
SciTegic.value.DoubleValue
35.437

@<SCITEGIC>MOL_PROPERTY
E
SciTegic.value.DoubleValue
-2.399

@<SCITEGIC>MOL_PROPERTY
-TS
SciTegic.value.DoubleValue
37.836

@<SCITEGIC>MOL_PROPERTY
U+W
SciTegic.value.DoubleValue
-26.544

@<SCITEGIC>MOL_PROPERTY
U
SciTegic.value.DoubleValue
25.494

@<SCITEGIC>MOL_PROPERTY
W
SciTegic.value.DoubleValue
-52.037

@<SCITEGIC>MOL_PROPERTY
W(PB)
SciTegic.value.DoubleValue
-54.506

@<SCITEGIC>MOL_PROPERTY
W(SA)
SciTegic.value.DoubleValue
2.469

@<SCITEGIC>MOL_PROPERTY
Valence
SciTegic.value.DoubleValue
4.662

@<SCITEGIC>MOL_PROPERTY
Coulomb
SciTegic.value.DoubleValue
19.570

@<SCITEGIC>MOL_PROPERTY
VdW
SciTegic.value.DoubleValue
1.262

@<SCITEGIC>MOL_PROPERTY
VdW6
SciTegic.value.DoubleValue
-9.758

@<SCITEGIC>MOL_PROPERTY
VdW12
SciTegic.value.DoubleValue
11.020

@<SCITEGIC>MOL_PROPERTY
Bond
SciTegic.value.DoubleValue
0.281

@<SCITEGIC>MOL_PROPERTY
Angle
SciTegic.value.DoubleValue
1.806

@<SCITEGIC>MOL_PROPERTY
Pdih
SciTegic.value.DoubleValue
2.576

@<SCITEGIC>MOL_PROPERTY
Idih
SciTegic.value.DoubleValue
0.000

@<SCITEGIC>MOL_PROPERTY
Tether
SciTegic.value.DoubleValue
0.000

@<TRIPOS>MOLECULE
guest-s15_vm2.mol2 : vm2 ligand conformer 45
          29          28           1
SMALL
USER_CHARGES
 
@<TRIPOS>ATOM
       1    C1      19.736527   20.242771   19.595539 C.3        1 MOL1        -0.2426
       2    H1      19.685197   20.293772   18.500243 H          1 MOL1         0.0959
       3    H2      18.776371   20.600091   19.987982 H          1 MOL1         0.0959
       4    H3      20.522628   20.933285   19.927573 H          1 MOL1         0.0959
       5    C2      20.035065   18.798189   20.056439 C.3        1 MOL1        -0.1410
       6    H4      20.942441   18.443862   19.547659 H          1 MOL1         0.0948
       7    H5      19.222210   18.132249   19.734734 H          1 MOL1         0.0948
       8    C3      20.240943   18.672703   21.585139 C.3        1 MOL1        -0.1435
       9    H6      20.546475   17.642271   21.813012 H          1 MOL1         0.0948
      10    H7      21.074816   19.319241   21.888387 H          1 MOL1         0.0948
      11    C4      18.972396   19.018661   22.405097 C.3        1 MOL1        -0.1435
      12    H8      18.120697   18.453909   22.001671 H          1 MOL1         0.0948
      13    H9      18.724353   20.081485   22.284699 H          1 MOL1         0.0948
      14    C5      19.106309   18.694711   23.913263 C.3        1 MOL1        -0.1435
      15    H10     18.131528   18.867397   24.387692 H          1 MOL1         0.0948
      16    H11     19.324501   17.625180   24.032228 H          1 MOL1         0.0948
      17    C6      20.191142   19.544860   24.629171 C.3        1 MOL1        -0.1500
      18    H12     20.019066   20.607242   24.412379 H          1 MOL1         0.0948
      19    H13     21.179205   19.306722   24.215939 H          1 MOL1         0.0948
      20    C7      20.251199   19.361507   26.164018 C.3        1 MOL1         0.1162
      21    H14     21.041564   20.018957   26.539309 H          1 MOL1         0.0910
      22    C8      20.617212   17.920373   26.559463 C.3        1 MOL1        -0.2491
      23    H15     20.783327   17.849911   27.641421 H          1 MOL1         0.0959
      24    H16     19.821531   17.213395   26.295968 H          1 MOL1         0.0959
      25    H17     21.540324   17.601526   26.059681 H          1 MOL1         0.0959
      26    N1      18.985208   19.802224   26.845871 N.4        1 MOL1        -0.5987
      27    H18     18.189812   19.225560   26.560822 H          1 MOL1         0.3605
      28    H19     18.757347   20.775142   26.621810 H          1 MOL1         0.3605
      29    H20     19.065456   19.733226   27.864418 H          1 MOL1         0.3605
@<TRIPOS>BOND
    1     1     2    1
    2     1     3    1
    3     1     4    1
    4     1     5    1
    5     5     6    1
    6     5     7    1
    7     5     8    1
    8     8     9    1
    9     8    10    1
   10     8    11    1
   11    11    12    1
   12    11    13    1
   13    11    14    1
   14    14    15    1
   15    14    16    1
   16    14    17    1
   17    17    18    1
   18    17    19    1
   19    17    20    1
   20    20    21    1
   21    20    22    1
   22    22    23    1
   23    22    24    1
   24    22    25    1
   25    20    26    1
   26    26    27    1
   27    26    28    1
   28    26    29    1
@<TRIPOS>SUBSTRUCTURE
       1 MOL1            1 RESIDUE      1      MOL     
@<SCITEGIC>MOL_PROPERTY
VM2 Rank
SciTegic.value.IntegerValue
45

@<SCITEGIC>MOL_PROPERTY
Conf_Id
SciTegic.value.IntegerValue
909

@<SCITEGIC>MOL_PROPERTY
Probability
SciTegic.value.DoubleValue
0.57

@<SCITEGIC>MOL_PROPERTY
Sum Probability
SciTegic.value.DoubleValue
89.46

@<SCITEGIC>MOL_PROPERTY
Delta G
SciTegic.value.DoubleValue
1.746

@<SCITEGIC>MOL_PROPERTY
G
SciTegic.value.DoubleValue
35.448

@<SCITEGIC>MOL_PROPERTY
E
SciTegic.value.DoubleValue
-2.332

@<SCITEGIC>MOL_PROPERTY
-TS
SciTegic.value.DoubleValue
37.780

@<SCITEGIC>MOL_PROPERTY
U+W
SciTegic.value.DoubleValue
-26.477

@<SCITEGIC>MOL_PROPERTY
U
SciTegic.value.DoubleValue
25.725

@<SCITEGIC>MOL_PROPERTY
W
SciTegic.value.DoubleValue
-52.202

@<SCITEGIC>MOL_PROPERTY
W(PB)
SciTegic.value.DoubleValue
-54.668

@<SCITEGIC>MOL_PROPERTY
W(SA)
SciTegic.value.DoubleValue
2.467

@<SCITEGIC>MOL_PROPERTY
Valence
SciTegic.value.DoubleValue
4.677

@<SCITEGIC>MOL_PROPERTY
Coulomb
SciTegic.value.DoubleValue
19.669

@<SCITEGIC>MOL_PROPERTY
VdW
SciTegic.value.DoubleValue
1.379

@<SCITEGIC>MOL_PROPERTY
VdW6
SciTegic.value.DoubleValue
-9.934

@<SCITEGIC>MOL_PROPERTY
VdW12
SciTegic.value.DoubleValue
11.313

@<SCITEGIC>MOL_PROPERTY
Bond
SciTegic.value.DoubleValue
0.305

@<SCITEGIC>MOL_PROPERTY
Angle
SciTegic.value.DoubleValue
1.629

@<SCITEGIC>MOL_PROPERTY
Pdih
SciTegic.value.DoubleValue
2.742

@<SCITEGIC>MOL_PROPERTY
Idih
SciTegic.value.DoubleValue
0.000

@<SCITEGIC>MOL_PROPERTY
Tether
SciTegic.value.DoubleValue
0.000

@<TRIPOS>MOLECULE
guest-s15_vm2.mol2 : vm2 ligand conformer 46
          29          28           1
SMALL
USER_CHARGES
 
@<TRIPOS>ATOM
       1    C1      18.726003   18.968156   19.590407 C.3        1 MOL1        -0.2426
       2    H1      17.794067   19.349770   20.027306 H          1 MOL1         0.0959
       3    H2      18.626710   19.009859   18.498016 H          1 MOL1         0.0959
       4    H3      18.831437   17.913146   19.872265 H          1 MOL1         0.0959
       5    C2      19.940357   19.803249   20.055541 C.3        1 MOL1        -0.1410
       6    H4      19.846237   20.821292   19.652459 H          1 MOL1         0.0948
       7    H5      20.861870   19.386379   19.625716 H          1 MOL1         0.0948
       8    C3      20.072208   19.888100   21.595206 C.3        1 MOL1        -0.1435
       9    H6      20.893784   20.575985   21.837871 H          1 MOL1         0.0948
      10    H7      19.158614   20.335713   22.007485 H          1 MOL1         0.0948
      11    C4      20.344514   18.516433   22.263170 C.3        1 MOL1        -0.1435
      12    H8      21.179316   18.026871   21.743004 H          1 MOL1         0.0948
      13    H9      19.474426   17.857968   22.140418 H          1 MOL1         0.0948
      14    C5      20.698065   18.618072   23.767591 C.3        1 MOL1        -0.1435
      15    H10     21.004397   17.620878   24.108373 H          1 MOL1         0.0948
      16    H11     21.571728   19.271715   23.896872 H          1 MOL1         0.0948
      17    C6      19.526158   19.130870   24.644628 C.3        1 MOL1        -0.1500
      18    H12     18.656817   18.470919   24.524555 H          1 MOL1         0.0948
      19    H13     19.218342   20.120465   24.285994 H          1 MOL1         0.0948
      20    C7      19.879863   19.256953   26.144430 C.3        1 MOL1         0.1162
      21    H14     20.783271   19.868059   26.234001 H          1 MOL1         0.0910
      22    C8      20.148864   17.889061   26.797347 C.3        1 MOL1        -0.2491
      23    H15     19.292575   17.214567   26.672716 H          1 MOL1         0.0959
      24    H16     21.032946   17.406401   26.365545 H          1 MOL1         0.0959
      25    H17     20.336675   18.004595   27.871939 H          1 MOL1         0.0959
      26    N1      18.799967   19.985106   26.895679 N.4        1 MOL1        -0.5987
      27    H18     18.633612   20.918079   26.507429 H          1 MOL1         0.3605
      28    H19     19.047034   20.105570   27.882176 H          1 MOL1         0.3605
      29    H20     17.912943   19.475302   26.863042 H          1 MOL1         0.3605
@<TRIPOS>BOND
    1     1     2    1
    2     1     3    1
    3     1     4    1
    4     1     5    1
    5     5     6    1
    6     5     7    1
    7     5     8    1
    8     8     9    1
    9     8    10    1
   10     8    11    1
   11    11    12    1
   12    11    13    1
   13    11    14    1
   14    14    15    1
   15    14    16    1
   16    14    17    1
   17    17    18    1
   18    17    19    1
   19    17    20    1
   20    20    21    1
   21    20    22    1
   22    22    23    1
   23    22    24    1
   24    22    25    1
   25    20    26    1
   26    26    27    1
   27    26    28    1
   28    26    29    1
@<TRIPOS>SUBSTRUCTURE
       1 MOL1            1 RESIDUE      1      MOL     
@<SCITEGIC>MOL_PROPERTY
VM2 Rank
SciTegic.value.IntegerValue
46

@<SCITEGIC>MOL_PROPERTY
Conf_Id
SciTegic.value.IntegerValue
280

@<SCITEGIC>MOL_PROPERTY
Probability
SciTegic.value.DoubleValue
0.55

@<SCITEGIC>MOL_PROPERTY
Sum Probability
SciTegic.value.DoubleValue
90.00

@<SCITEGIC>MOL_PROPERTY
Delta G
SciTegic.value.DoubleValue
1.770

@<SCITEGIC>MOL_PROPERTY
G
SciTegic.value.DoubleValue
35.472

@<SCITEGIC>MOL_PROPERTY
E
SciTegic.value.DoubleValue
-2.098

@<SCITEGIC>MOL_PROPERTY
-TS
SciTegic.value.DoubleValue
37.570

@<SCITEGIC>MOL_PROPERTY
U+W
SciTegic.value.DoubleValue
-26.242

@<SCITEGIC>MOL_PROPERTY
U
SciTegic.value.DoubleValue
25.974

@<SCITEGIC>MOL_PROPERTY
W
SciTegic.value.DoubleValue
-52.216

@<SCITEGIC>MOL_PROPERTY
W(PB)
SciTegic.value.DoubleValue
-54.709

@<SCITEGIC>MOL_PROPERTY
W(SA)
SciTegic.value.DoubleValue
2.492

@<SCITEGIC>MOL_PROPERTY
Valence
SciTegic.value.DoubleValue
4.812

@<SCITEGIC>MOL_PROPERTY
Coulomb
SciTegic.value.DoubleValue
19.700

@<SCITEGIC>MOL_PROPERTY
VdW
SciTegic.value.DoubleValue
1.463

@<SCITEGIC>MOL_PROPERTY
VdW6
SciTegic.value.DoubleValue
-9.391

@<SCITEGIC>MOL_PROPERTY
VdW12
SciTegic.value.DoubleValue
10.854

@<SCITEGIC>MOL_PROPERTY
Bond
SciTegic.value.DoubleValue
0.285

@<SCITEGIC>MOL_PROPERTY
Angle
SciTegic.value.DoubleValue
1.670

@<SCITEGIC>MOL_PROPERTY
Pdih
SciTegic.value.DoubleValue
2.856

@<SCITEGIC>MOL_PROPERTY
Idih
SciTegic.value.DoubleValue
0.000

@<SCITEGIC>MOL_PROPERTY
Tether
SciTegic.value.DoubleValue
0.000

@<TRIPOS>MOLECULE
guest-s15_vm2.mol2 : vm2 ligand conformer 47
          29          28           1
SMALL
USER_CHARGES
 
@<TRIPOS>ATOM
       1    C1      20.140305   19.162108   19.204046 C.3        1 MOL1        -0.2426
       2    H1      20.955557   19.850206   19.459158 H          1 MOL1         0.0959
       3    H2      20.541410   18.140311   19.196121 H          1 MOL1         0.0959
       4    H3      19.814059   19.402394   18.183871 H          1 MOL1         0.0959
       5    C2      18.958844   19.287770   20.192614 C.3        1 MOL1        -0.1410
       6    H4      18.123241   18.677618   19.822134 H          1 MOL1         0.0948
       7    H5      18.598004   20.325682   20.208400 H          1 MOL1         0.0948
       8    C3      19.305132   18.831686   21.630709 C.3        1 MOL1        -0.1435
       9    H6      18.377573   18.828148   22.217353 H          1 MOL1         0.0948
      10    H7      19.663288   17.793283   21.609685 H          1 MOL1         0.0948
      11    C4      20.355268   19.733701   22.327635 C.3        1 MOL1        -0.1435
      12    H8      19.996247   20.771776   22.349855 H          1 MOL1         0.0948
      13    H9      21.280898   19.739611   21.737888 H          1 MOL1         0.0948
      14    C5      20.706794   19.274518   23.764244 C.3        1 MOL1        -0.1435
      15    H10     21.079041   18.242110   23.729208 H          1 MOL1         0.0948
      16    H11     21.537337   19.892299   24.132990 H          1 MOL1         0.0948
      17    C6      19.520212   19.383147   24.756523 C.3        1 MOL1        -0.1500
      18    H12     18.735799   18.664540   24.487754 H          1 MOL1         0.0948
      19    H13     19.075759   20.382768   24.663142 H          1 MOL1         0.0948
      20    C7      19.926655   19.163665   26.231442 C.3        1 MOL1         0.1162
      21    H14     20.732367   19.863649   26.473229 H          1 MOL1         0.0910
      22    C8      20.432244   17.732224   26.485335 C.3        1 MOL1        -0.2491
      23    H15     21.347741   17.526618   25.918639 H          1 MOL1         0.0959
      24    H16     20.668651   17.588613   27.546855 H          1 MOL1         0.0959
      25    H17     19.677319   16.988529   26.201229 H          1 MOL1         0.0959
      26    N1      18.790547   19.487181   27.161451 N.4        1 MOL1        -0.5987
      27    H18     19.067916   19.381131   28.141523 H          1 MOL1         0.3605
      28    H19     17.989467   18.870221   27.002245 H          1 MOL1         0.3605
      29    H20     18.466138   20.450909   27.039462 H          1 MOL1         0.3605
@<TRIPOS>BOND
    1     1     2    1
    2     1     3    1
    3     1     4    1
    4     1     5    1
    5     5     6    1
    6     5     7    1
    7     5     8    1
    8     8     9    1
    9     8    10    1
   10     8    11    1
   11    11    12    1
   12    11    13    1
   13    11    14    1
   14    14    15    1
   15    14    16    1
   16    14    17    1
   17    17    18    1
   18    17    19    1
   19    17    20    1
   20    20    21    1
   21    20    22    1
   22    22    23    1
   23    22    24    1
   24    22    25    1
   25    20    26    1
   26    26    27    1
   27    26    28    1
   28    26    29    1
@<TRIPOS>SUBSTRUCTURE
       1 MOL1            1 RESIDUE      1      MOL     
@<SCITEGIC>MOL_PROPERTY
VM2 Rank
SciTegic.value.IntegerValue
47

@<SCITEGIC>MOL_PROPERTY
Conf_Id
SciTegic.value.IntegerValue
1230

@<SCITEGIC>MOL_PROPERTY
Probability
SciTegic.value.DoubleValue
0.53

@<SCITEGIC>MOL_PROPERTY
Sum Probability
SciTegic.value.DoubleValue
90.53

@<SCITEGIC>MOL_PROPERTY
Delta G
SciTegic.value.DoubleValue
1.792

@<SCITEGIC>MOL_PROPERTY
G
SciTegic.value.DoubleValue
35.494

@<SCITEGIC>MOL_PROPERTY
E
SciTegic.value.DoubleValue
-2.104

@<SCITEGIC>MOL_PROPERTY
-TS
SciTegic.value.DoubleValue
37.598

@<SCITEGIC>MOL_PROPERTY
U+W
SciTegic.value.DoubleValue
-26.249

@<SCITEGIC>MOL_PROPERTY
U
SciTegic.value.DoubleValue
25.821

@<SCITEGIC>MOL_PROPERTY
W
SciTegic.value.DoubleValue
-52.070

@<SCITEGIC>MOL_PROPERTY
W(PB)
SciTegic.value.DoubleValue
-54.584

@<SCITEGIC>MOL_PROPERTY
W(SA)
SciTegic.value.DoubleValue
2.514

@<SCITEGIC>MOL_PROPERTY
Valence
SciTegic.value.DoubleValue
4.779

@<SCITEGIC>MOL_PROPERTY
Coulomb
SciTegic.value.DoubleValue
19.614

@<SCITEGIC>MOL_PROPERTY
VdW
SciTegic.value.DoubleValue
1.428

@<SCITEGIC>MOL_PROPERTY
VdW6
SciTegic.value.DoubleValue
-9.390

@<SCITEGIC>MOL_PROPERTY
VdW12
SciTegic.value.DoubleValue
10.817

@<SCITEGIC>MOL_PROPERTY
Bond
SciTegic.value.DoubleValue
0.283

@<SCITEGIC>MOL_PROPERTY
Angle
SciTegic.value.DoubleValue
1.640

@<SCITEGIC>MOL_PROPERTY
Pdih
SciTegic.value.DoubleValue
2.856

@<SCITEGIC>MOL_PROPERTY
Idih
SciTegic.value.DoubleValue
0.000

@<SCITEGIC>MOL_PROPERTY
Tether
SciTegic.value.DoubleValue
0.000

@<TRIPOS>MOLECULE
guest-s15_vm2.mol2 : vm2 ligand conformer 48
          29          28           1
SMALL
USER_CHARGES
 
@<TRIPOS>ATOM
       1    C1      19.327416   20.625907   19.868354 C.3        1 MOL1        -0.2426
       2    H1      19.905107   21.508193   19.563633 H          1 MOL1         0.0959
       3    H2      19.121743   20.030885   18.968990 H          1 MOL1         0.0959
       4    H3      18.368904   20.974235   20.274717 H          1 MOL1         0.0959
       5    C2      20.105407   19.800033   20.914493 C.3        1 MOL1        -0.1410
       6    H4      20.326357   20.439088   21.779748 H          1 MOL1         0.0948
       7    H5      21.071022   19.490820   20.490717 H          1 MOL1         0.0948
       8    C3      19.308724   18.552446   21.363020 C.3        1 MOL1        -0.1435
       9    H6      18.361820   18.861987   21.824308 H          1 MOL1         0.0948
      10    H7      19.031704   17.968458   20.474528 H          1 MOL1         0.0948
      11    C4      20.093972   17.626123   22.327655 C.3        1 MOL1        -0.1435
      12    H8      20.963807   17.217707   21.794931 H          1 MOL1         0.0948
      13    H9      19.463271   16.761876   22.577565 H          1 MOL1         0.0948
      14    C5      20.584578   18.286985   23.642398 C.3        1 MOL1        -0.1435
      15    H10     21.138519   17.527742   24.208888 H          1 MOL1         0.0948
      16    H11     21.307316   19.081954   23.416056 H          1 MOL1         0.0948
      17    C6      19.437159   18.854868   24.517632 C.3        1 MOL1        -0.1500
      18    H12     18.722203   18.056307   24.755878 H          1 MOL1         0.0948
      19    H13     18.885925   19.605462   23.938255 H          1 MOL1         0.0948
      20    C7      19.923225   19.525406   25.823090 C.3        1 MOL1         0.1162
      21    H14     20.679045   20.273294   25.564233 H          1 MOL1         0.0910
      22    C8      20.550897   18.514353   26.799576 C.3        1 MOL1        -0.2491
      23    H15     19.850327   17.703870   27.036270 H          1 MOL1         0.0959
      24    H16     21.463113   18.070652   26.384874 H          1 MOL1         0.0959
      25    H17     20.829962   19.007289   27.738990 H          1 MOL1         0.0959
      26    N1      18.804623   20.269878   26.497782 N.4        1 MOL1        -0.5987
      27    H18     18.399450   20.981046   25.882237 H          1 MOL1         0.3605
      28    H19     19.130196   20.748187   27.342732 H          1 MOL1         0.3605
      29    H20     18.049578   19.637465   26.776597 H          1 MOL1         0.3605
@<TRIPOS>BOND
    1     1     2    1
    2     1     3    1
    3     1     4    1
    4     1     5    1
    5     5     6    1
    6     5     7    1
    7     5     8    1
    8     8     9    1
    9     8    10    1
   10     8    11    1
   11    11    12    1
   12    11    13    1
   13    11    14    1
   14    14    15    1
   15    14    16    1
   16    14    17    1
   17    17    18    1
   18    17    19    1
   19    17    20    1
   20    20    21    1
   21    20    22    1
   22    22    23    1
   23    22    24    1
   24    22    25    1
   25    20    26    1
   26    26    27    1
   27    26    28    1
   28    26    29    1
@<TRIPOS>SUBSTRUCTURE
       1 MOL1            1 RESIDUE      1      MOL     
@<SCITEGIC>MOL_PROPERTY
VM2 Rank
SciTegic.value.IntegerValue
48

@<SCITEGIC>MOL_PROPERTY
Conf_Id
SciTegic.value.IntegerValue
201

@<SCITEGIC>MOL_PROPERTY
Probability
SciTegic.value.DoubleValue
0.48

@<SCITEGIC>MOL_PROPERTY
Sum Probability
SciTegic.value.DoubleValue
91.02

@<SCITEGIC>MOL_PROPERTY
Delta G
SciTegic.value.DoubleValue
1.843

@<SCITEGIC>MOL_PROPERTY
G
SciTegic.value.DoubleValue
35.545

@<SCITEGIC>MOL_PROPERTY
E
SciTegic.value.DoubleValue
-2.257

@<SCITEGIC>MOL_PROPERTY
-TS
SciTegic.value.DoubleValue
37.802

@<SCITEGIC>MOL_PROPERTY
U+W
SciTegic.value.DoubleValue
-26.401

@<SCITEGIC>MOL_PROPERTY
U
SciTegic.value.DoubleValue
26.111

@<SCITEGIC>MOL_PROPERTY
W
SciTegic.value.DoubleValue
-52.513

@<SCITEGIC>MOL_PROPERTY
W(PB)
SciTegic.value.DoubleValue
-54.998

@<SCITEGIC>MOL_PROPERTY
W(SA)
SciTegic.value.DoubleValue
2.485

@<SCITEGIC>MOL_PROPERTY
Valence
SciTegic.value.DoubleValue
4.789

@<SCITEGIC>MOL_PROPERTY
Coulomb
SciTegic.value.DoubleValue
20.049

@<SCITEGIC>MOL_PROPERTY
VdW
SciTegic.value.DoubleValue
1.273

@<SCITEGIC>MOL_PROPERTY
VdW6
SciTegic.value.DoubleValue
-9.803

@<SCITEGIC>MOL_PROPERTY
VdW12
SciTegic.value.DoubleValue
11.076

@<SCITEGIC>MOL_PROPERTY
Bond
SciTegic.value.DoubleValue
0.295

@<SCITEGIC>MOL_PROPERTY
Angle
SciTegic.value.DoubleValue
1.940

@<SCITEGIC>MOL_PROPERTY
Pdih
SciTegic.value.DoubleValue
2.553

@<SCITEGIC>MOL_PROPERTY
Idih
SciTegic.value.DoubleValue
0.000

@<SCITEGIC>MOL_PROPERTY
Tether
SciTegic.value.DoubleValue
0.000

@<TRIPOS>MOLECULE
guest-s15_vm2.mol2 : vm2 ligand conformer 49
          29          28           1
SMALL
USER_CHARGES
 
@<TRIPOS>ATOM
       1    C1      20.173339   19.312123   19.180185 C.3        1 MOL1        -0.2426
       2    H1      20.826042   20.193982   19.216594 H          1 MOL1         0.0959
       3    H2      20.777801   18.426386   19.410989 H          1 MOL1         0.0959
       4    H3      19.812264   19.204349   18.149193 H          1 MOL1         0.0959
       5    C2      18.984023   19.460176   20.156204 C.3        1 MOL1        -0.1410
       6    H4      18.366344   18.551664   20.127847 H          1 MOL1         0.0948
       7    H5      18.341112   20.279721   19.805778 H          1 MOL1         0.0948
       8    C3      19.413088   19.756632   21.613711 C.3        1 MOL1        -0.1435
       9    H6      20.029759   20.665589   21.636152 H          1 MOL1         0.0948
      10    H7      18.508322   19.981430   22.192166 H          1 MOL1         0.0948
      11    C4      20.180811   18.586451   22.280335 C.3        1 MOL1        -0.1435
      12    H8      21.079102   18.360721   21.691514 H          1 MOL1         0.0948
      13    H9      19.563395   17.677897   22.262186 H          1 MOL1         0.0948
      14    C5      20.627665   18.882277   23.733718 C.3        1 MOL1        -0.1435
      15    H10     21.305656   18.077403   24.044945 H          1 MOL1         0.0948
      16    H11     21.216932   19.809391   23.755935 H          1 MOL1         0.0948
      17    C6      19.450200   18.984005   24.738436 C.3        1 MOL1        -0.1500
      18    H12     18.869388   18.052259   24.724363 H          1 MOL1         0.0948
      19    H13     18.769791   19.780254   24.414334 H          1 MOL1         0.0948
      20    C7      19.892833   19.298167   26.186204 C.3        1 MOL1         0.1162
      21    H14     20.519802   20.194911   26.166656 H          1 MOL1         0.0910
      22    C8      20.704036   18.148680   26.811094 C.3        1 MOL1        -0.2491
      23    H15     20.140152   17.207777   26.790011 H          1 MOL1         0.0959
      24    H16     21.651622   17.994068   26.282722 H          1 MOL1         0.0959
      25    H17     20.950279   18.373741   27.856122 H          1 MOL1         0.0959
      26    N1      18.710007   19.627490   27.054113 N.4        1 MOL1        -0.5987
      27    H18     18.178622   20.420332   26.682780 H          1 MOL1         0.3605
      28    H19     19.000891   19.874396   28.004457 H          1 MOL1         0.3605
      29    H20     18.067809   18.833802   27.127785 H          1 MOL1         0.3605
@<TRIPOS>BOND
    1     1     2    1
    2     1     3    1
    3     1     4    1
    4     1     5    1
    5     5     6    1
    6     5     7    1
    7     5     8    1
    8     8     9    1
    9     8    10    1
   10     8    11    1
   11    11    12    1
   12    11    13    1
   13    11    14    1
   14    14    15    1
   15    14    16    1
   16    14    17    1
   17    17    18    1
   18    17    19    1
   19    17    20    1
   20    20    21    1
   21    20    22    1
   22    22    23    1
   23    22    24    1
   24    22    25    1
   25    20    26    1
   26    26    27    1
   27    26    28    1
   28    26    29    1
@<TRIPOS>SUBSTRUCTURE
       1 MOL1            1 RESIDUE      1      MOL     
@<SCITEGIC>MOL_PROPERTY
VM2 Rank
SciTegic.value.IntegerValue
49

@<SCITEGIC>MOL_PROPERTY
Conf_Id
SciTegic.value.IntegerValue
214

@<SCITEGIC>MOL_PROPERTY
Probability
SciTegic.value.DoubleValue
0.48

@<SCITEGIC>MOL_PROPERTY
Sum Probability
SciTegic.value.DoubleValue
91.50

@<SCITEGIC>MOL_PROPERTY
Delta G
SciTegic.value.DoubleValue
1.844

@<SCITEGIC>MOL_PROPERTY
G
SciTegic.value.DoubleValue
35.546

@<SCITEGIC>MOL_PROPERTY
E
SciTegic.value.DoubleValue
-1.907

@<SCITEGIC>MOL_PROPERTY
-TS
SciTegic.value.DoubleValue
37.453

@<SCITEGIC>MOL_PROPERTY
U+W
SciTegic.value.DoubleValue
-26.051

@<SCITEGIC>MOL_PROPERTY
U
SciTegic.value.DoubleValue
26.145

@<SCITEGIC>MOL_PROPERTY
W
SciTegic.value.DoubleValue
-52.196

@<SCITEGIC>MOL_PROPERTY
W(PB)
SciTegic.value.DoubleValue
-54.704

@<SCITEGIC>MOL_PROPERTY
W(SA)
SciTegic.value.DoubleValue
2.508

@<SCITEGIC>MOL_PROPERTY
Valence
SciTegic.value.DoubleValue
4.933

@<SCITEGIC>MOL_PROPERTY
Coulomb
SciTegic.value.DoubleValue
19.671

@<SCITEGIC>MOL_PROPERTY
VdW
SciTegic.value.DoubleValue
1.541

@<SCITEGIC>MOL_PROPERTY
VdW6
SciTegic.value.DoubleValue
-9.288

@<SCITEGIC>MOL_PROPERTY
VdW12
SciTegic.value.DoubleValue
10.829

@<SCITEGIC>MOL_PROPERTY
Bond
SciTegic.value.DoubleValue
0.296

@<SCITEGIC>MOL_PROPERTY
Angle
SciTegic.value.DoubleValue
1.773

@<SCITEGIC>MOL_PROPERTY
Pdih
SciTegic.value.DoubleValue
2.865

@<SCITEGIC>MOL_PROPERTY
Idih
SciTegic.value.DoubleValue
0.000

@<SCITEGIC>MOL_PROPERTY
Tether
SciTegic.value.DoubleValue
0.000

@<TRIPOS>MOLECULE
guest-s15_vm2.mol2 : vm2 ligand conformer 50
          29          28           1
SMALL
USER_CHARGES
 
@<TRIPOS>ATOM
       1    C1      19.003618   20.470600   20.378754 C.3        1 MOL1        -0.2426
       2    H1      19.236622   21.030395   21.293103 H          1 MOL1         0.0959
       3    H2      19.773718   20.697667   19.630205 H          1 MOL1         0.0959
       4    H3      18.044097   20.843766   19.998111 H          1 MOL1         0.0959
       5    C2      18.924447   18.951367   20.650201 C.3        1 MOL1        -0.1410
       6    H4      18.574435   18.447083   19.738712 H          1 MOL1         0.0948
       7    H5      18.162505   18.750600   21.415094 H          1 MOL1         0.0948
       8    C3      20.280779   18.328248   21.068104 C.3        1 MOL1        -0.1435
       9    H6      20.143451   17.248100   21.214784 H          1 MOL1         0.0948
      10    H7      20.989567   18.430475   20.234883 H          1 MOL1         0.0948
      11    C4      20.923547   18.932228   22.343401 C.3        1 MOL1        -0.1435
      12    H8      21.173592   19.987612   22.172045 H          1 MOL1         0.0948
      13    H9      21.879264   18.420898   22.523064 H          1 MOL1         0.0948
      14    C5      20.036896   18.801412   23.604766 C.3        1 MOL1        -0.1435
      15    H10     19.109717   19.369754   23.461073 H          1 MOL1         0.0948
      16    H11     19.753480   17.748809   23.734631 H          1 MOL1         0.0948
      17    C6      20.769755   19.314554   24.871564 C.3        1 MOL1        -0.1500
      18    H12     21.097269   20.349018   24.704022 H          1 MOL1         0.0948
      19    H13     21.685859   18.728525   25.023364 H          1 MOL1         0.0948
      20    C7      19.932031   19.271631   26.171372 C.3        1 MOL1         0.1162
      21    H14     20.554563   19.681163   26.972934 H          1 MOL1         0.0910
      22    C8      19.550483   17.834526   26.566863 C.3        1 MOL1        -0.2491
      23    H15     19.078304   17.821941   27.556853 H          1 MOL1         0.0959
      24    H16     18.845048   17.391264   25.854039 H          1 MOL1         0.0959
      25    H17     20.439960   17.194109   26.614500 H          1 MOL1         0.0959
      26    N1      18.714444   20.151434   26.098975 N.4        1 MOL1        -0.5987
      27    H18     18.065782   19.828461   25.376895 H          1 MOL1         0.3605
      28    H19     18.964017   21.120115   25.879714 H          1 MOL1         0.3605
      29    H20     18.205970   20.159852   26.987829 H          1 MOL1         0.3605
@<TRIPOS>BOND
    1     1     2    1
    2     1     3    1
    3     1     4    1
    4     1     5    1
    5     5     6    1
    6     5     7    1
    7     5     8    1
    8     8     9    1
    9     8    10    1
   10     8    11    1
   11    11    12    1
   12    11    13    1
   13    11    14    1
   14    14    15    1
   15    14    16    1
   16    14    17    1
   17    17    18    1
   18    17    19    1
   19    17    20    1
   20    20    21    1
   21    20    22    1
   22    22    23    1
   23    22    24    1
   24    22    25    1
   25    20    26    1
   26    26    27    1
   27    26    28    1
   28    26    29    1
@<TRIPOS>SUBSTRUCTURE
       1 MOL1            1 RESIDUE      1      MOL     
@<SCITEGIC>MOL_PROPERTY
VM2 Rank
SciTegic.value.IntegerValue
50

@<SCITEGIC>MOL_PROPERTY
Conf_Id
SciTegic.value.IntegerValue
572

@<SCITEGIC>MOL_PROPERTY
Probability
SciTegic.value.DoubleValue
0.48

@<SCITEGIC>MOL_PROPERTY
Sum Probability
SciTegic.value.DoubleValue
91.98

@<SCITEGIC>MOL_PROPERTY
Delta G
SciTegic.value.DoubleValue
1.848

@<SCITEGIC>MOL_PROPERTY
G
SciTegic.value.DoubleValue
35.550

@<SCITEGIC>MOL_PROPERTY
E
SciTegic.value.DoubleValue
-2.421

@<SCITEGIC>MOL_PROPERTY
-TS
SciTegic.value.DoubleValue
37.971

@<SCITEGIC>MOL_PROPERTY
U+W
SciTegic.value.DoubleValue
-26.566

@<SCITEGIC>MOL_PROPERTY
U
SciTegic.value.DoubleValue
25.998

@<SCITEGIC>MOL_PROPERTY
W
SciTegic.value.DoubleValue
-52.564

@<SCITEGIC>MOL_PROPERTY
W(PB)
SciTegic.value.DoubleValue
-55.004

@<SCITEGIC>MOL_PROPERTY
W(SA)
SciTegic.value.DoubleValue
2.440

@<SCITEGIC>MOL_PROPERTY
Valence
SciTegic.value.DoubleValue
4.627

@<SCITEGIC>MOL_PROPERTY
Coulomb
SciTegic.value.DoubleValue
20.145

@<SCITEGIC>MOL_PROPERTY
VdW
SciTegic.value.DoubleValue
1.225

@<SCITEGIC>MOL_PROPERTY
VdW6
SciTegic.value.DoubleValue
-10.242

@<SCITEGIC>MOL_PROPERTY
VdW12
SciTegic.value.DoubleValue
11.467

@<SCITEGIC>MOL_PROPERTY
Bond
SciTegic.value.DoubleValue
0.303

@<SCITEGIC>MOL_PROPERTY
Angle
SciTegic.value.DoubleValue
1.847

@<SCITEGIC>MOL_PROPERTY
Pdih
SciTegic.value.DoubleValue
2.477

@<SCITEGIC>MOL_PROPERTY
Idih
SciTegic.value.DoubleValue
0.000

@<SCITEGIC>MOL_PROPERTY
Tether
SciTegic.value.DoubleValue
0.000

@<TRIPOS>MOLECULE
guest-s15_vm2.mol2 : vm2 ligand conformer 51
          29          28           1
SMALL
USER_CHARGES
 
@<TRIPOS>ATOM
       1    C1      20.895895   19.018667   19.797843 C.3        1 MOL1        -0.2426
       2    H1      20.768511   18.271100   19.004165 H          1 MOL1         0.0959
       3    H2      20.949466   20.007426   19.323829 H          1 MOL1         0.0959
       4    H3      21.856086   18.824289   20.293276 H          1 MOL1         0.0959
       5    C2      19.728557   18.948380   20.804840 C.3        1 MOL1        -0.1410
       6    H4      19.682601   17.935883   21.227298 H          1 MOL1         0.0948
       7    H5      18.779966   19.116533   20.276169 H          1 MOL1         0.0948
       8    C3      19.887707   19.991783   21.935363 C.3        1 MOL1        -0.1435
       9    H6      20.820167   19.805158   22.484151 H          1 MOL1         0.0948
      10    H7      19.996335   20.988863   21.486816 H          1 MOL1         0.0948
      11    C4      18.689351   20.027062   22.918481 C.3        1 MOL1        -0.1435
      12    H8      17.784369   20.312720   22.364782 H          1 MOL1         0.0948
      13    H9      18.854553   20.831601   23.647390 H          1 MOL1         0.0948
      14    C5      18.411670   18.697678   23.670964 C.3        1 MOL1        -0.1435
      15    H10     17.563505   18.848366   24.352059 H          1 MOL1         0.0948
      16    H11     18.074987   17.936095   22.955167 H          1 MOL1         0.0948
      17    C6      19.618875   18.137490   24.469172 C.3        1 MOL1        -0.1500
      18    H12     20.401323   17.825137   23.765690 H          1 MOL1         0.0948
      19    H13     19.306934   17.225870   24.995779 H          1 MOL1         0.0948
      20    C7      20.219025   19.134701   25.484549 C.3        1 MOL1         0.1162
      21    H14     20.520994   20.036427   24.943547 H          1 MOL1         0.0910
      22    C8      21.466570   18.534615   26.151516 C.3        1 MOL1        -0.2491
      23    H15     21.218089   17.625342   26.713100 H          1 MOL1         0.0959
      24    H16     22.223563   18.276382   25.400504 H          1 MOL1         0.0959
      25    H17     21.918667   19.252911   26.846515 H          1 MOL1         0.0959
      26    N1      19.218350   19.565623   26.521271 N.4        1 MOL1        -0.5987
      27    H18     18.892993   18.770640   27.077642 H          1 MOL1         0.3605
      28    H19     18.396945   19.995533   26.087424 H          1 MOL1         0.3605
      29    H20     19.619740   20.250137   27.168450 H          1 MOL1         0.3605
@<TRIPOS>BOND
    1     1     2    1
    2     1     3    1
    3     1     4    1
    4     1     5    1
    5     5     6    1
    6     5     7    1
    7     5     8    1
    8     8     9    1
    9     8    10    1
   10     8    11    1
   11    11    12    1
   12    11    13    1
   13    11    14    1
   14    14    15    1
   15    14    16    1
   16    14    17    1
   17    17    18    1
   18    17    19    1
   19    17    20    1
   20    20    21    1
   21    20    22    1
   22    22    23    1
   23    22    24    1
   24    22    25    1
   25    20    26    1
   26    26    27    1
   27    26    28    1
   28    26    29    1
@<TRIPOS>SUBSTRUCTURE
       1 MOL1            1 RESIDUE      1      MOL     
@<SCITEGIC>MOL_PROPERTY
VM2 Rank
SciTegic.value.IntegerValue
51

@<SCITEGIC>MOL_PROPERTY
Conf_Id
SciTegic.value.IntegerValue
349

@<SCITEGIC>MOL_PROPERTY
Probability
SciTegic.value.DoubleValue
0.45

@<SCITEGIC>MOL_PROPERTY
Sum Probability
SciTegic.value.DoubleValue
92.43

@<SCITEGIC>MOL_PROPERTY
Delta G
SciTegic.value.DoubleValue
1.886

@<SCITEGIC>MOL_PROPERTY
G
SciTegic.value.DoubleValue
35.588

@<SCITEGIC>MOL_PROPERTY
E
SciTegic.value.DoubleValue
-2.609

@<SCITEGIC>MOL_PROPERTY
-TS
SciTegic.value.DoubleValue
38.197

@<SCITEGIC>MOL_PROPERTY
U+W
SciTegic.value.DoubleValue
-26.754

@<SCITEGIC>MOL_PROPERTY
U
SciTegic.value.DoubleValue
25.507

@<SCITEGIC>MOL_PROPERTY
W
SciTegic.value.DoubleValue
-52.261

@<SCITEGIC>MOL_PROPERTY
W(PB)
SciTegic.value.DoubleValue
-54.689

@<SCITEGIC>MOL_PROPERTY
W(SA)
SciTegic.value.DoubleValue
2.428

@<SCITEGIC>MOL_PROPERTY
Valence
SciTegic.value.DoubleValue
4.386

@<SCITEGIC>MOL_PROPERTY
Coulomb
SciTegic.value.DoubleValue
20.418

@<SCITEGIC>MOL_PROPERTY
VdW
SciTegic.value.DoubleValue
0.703

@<SCITEGIC>MOL_PROPERTY
VdW6
SciTegic.value.DoubleValue
-10.963

@<SCITEGIC>MOL_PROPERTY
VdW12
SciTegic.value.DoubleValue
11.666

@<SCITEGIC>MOL_PROPERTY
Bond
SciTegic.value.DoubleValue
0.307

@<SCITEGIC>MOL_PROPERTY
Angle
SciTegic.value.DoubleValue
1.748

@<SCITEGIC>MOL_PROPERTY
Pdih
SciTegic.value.DoubleValue
2.331

@<SCITEGIC>MOL_PROPERTY
Idih
SciTegic.value.DoubleValue
0.000

@<SCITEGIC>MOL_PROPERTY
Tether
SciTegic.value.DoubleValue
0.000

@<TRIPOS>MOLECULE
guest-s15_vm2.mol2 : vm2 ligand conformer 52
          29          28           1
SMALL
USER_CHARGES
 
@<TRIPOS>ATOM
       1    C1      20.606487   19.282615   19.516560 C.3        1 MOL1        -0.2426
       2    H1      21.396992   19.969390   19.845888 H          1 MOL1         0.0959
       3    H2      20.896054   18.263208   19.800381 H          1 MOL1         0.0959
       4    H3      20.563551   19.320675   18.420376 H          1 MOL1         0.0959
       5    C2      19.241112   19.674366   20.125390 C.3        1 MOL1        -0.1410
       6    H4      18.473083   18.958008   19.801867 H          1 MOL1         0.0948
       7    H5      18.939903   20.651210   19.721927 H          1 MOL1         0.0948
       8    C3      19.260664   19.759088   21.670558 C.3        1 MOL1        -0.1435
       9    H6      20.009605   20.500322   21.978411 H          1 MOL1         0.0948
      10    H7      18.287672   20.138405   22.011790 H          1 MOL1         0.0948
      11    C4      19.543229   18.397955   22.355357 C.3        1 MOL1        -0.1435
      12    H8      20.563718   18.064699   22.124751 H          1 MOL1         0.0948
      13    H9      18.867493   17.640260   21.935374 H          1 MOL1         0.0948
      14    C5      19.352104   18.427351   23.891724 C.3        1 MOL1        -0.1435
      15    H10     18.325806   18.742525   24.121875 H          1 MOL1         0.0948
      16    H11     19.452103   17.399604   24.263639 H          1 MOL1         0.0948
      17    C6      20.370761   19.346321   24.620112 C.3        1 MOL1        -0.1500
      18    H12     20.250661   20.378627   24.269650 H          1 MOL1         0.0948
      19    H13     21.391007   19.048976   24.343978 H          1 MOL1         0.0948
      20    C7      20.254219   19.352237   26.162759 C.3        1 MOL1         0.1162
      21    H14     20.983806   20.075388   26.540272 H          1 MOL1         0.0910
      22    C8      20.598144   17.984029   26.777112 C.3        1 MOL1        -0.2491
      23    H15     20.646355   18.056708   27.870542 H          1 MOL1         0.0959
      24    H16     19.848024   17.225010   26.525834 H          1 MOL1         0.0959
      25    H17     21.575584   17.632501   26.424126 H          1 MOL1         0.0959
      26    N1      18.909279   19.832037   26.634428 N.4        1 MOL1        -0.5987
      27    H18     18.869346   19.888437   27.656119 H          1 MOL1         0.3605
      28    H19     18.163643   19.200215   26.332083 H          1 MOL1         0.3605
      29    H20     18.693050   20.763206   26.267282 H          1 MOL1         0.3605
@<TRIPOS>BOND
    1     1     2    1
    2     1     3    1
    3     1     4    1
    4     1     5    1
    5     5     6    1
    6     5     7    1
    7     5     8    1
    8     8     9    1
    9     8    10    1
   10     8    11    1
   11    11    12    1
   12    11    13    1
   13    11    14    1
   14    14    15    1
   15    14    16    1
   16    14    17    1
   17    17    18    1
   18    17    19    1
   19    17    20    1
   20    20    21    1
   21    20    22    1
   22    22    23    1
   23    22    24    1
   24    22    25    1
   25    20    26    1
   26    26    27    1
   27    26    28    1
   28    26    29    1
@<TRIPOS>SUBSTRUCTURE
       1 MOL1            1 RESIDUE      1      MOL     
@<SCITEGIC>MOL_PROPERTY
VM2 Rank
SciTegic.value.IntegerValue
52

@<SCITEGIC>MOL_PROPERTY
Conf_Id
SciTegic.value.IntegerValue
501

@<SCITEGIC>MOL_PROPERTY
Probability
SciTegic.value.DoubleValue
0.45

@<SCITEGIC>MOL_PROPERTY
Sum Probability
SciTegic.value.DoubleValue
92.88

@<SCITEGIC>MOL_PROPERTY
Delta G
SciTegic.value.DoubleValue
1.891

@<SCITEGIC>MOL_PROPERTY
G
SciTegic.value.DoubleValue
35.593

@<SCITEGIC>MOL_PROPERTY
E
SciTegic.value.DoubleValue
-2.141

@<SCITEGIC>MOL_PROPERTY
-TS
SciTegic.value.DoubleValue
37.735

@<SCITEGIC>MOL_PROPERTY
U+W
SciTegic.value.DoubleValue
-26.286

@<SCITEGIC>MOL_PROPERTY
U
SciTegic.value.DoubleValue
25.995

@<SCITEGIC>MOL_PROPERTY
W
SciTegic.value.DoubleValue
-52.281

@<SCITEGIC>MOL_PROPERTY
W(PB)
SciTegic.value.DoubleValue
-54.747

@<SCITEGIC>MOL_PROPERTY
W(SA)
SciTegic.value.DoubleValue
2.466

@<SCITEGIC>MOL_PROPERTY
Valence
SciTegic.value.DoubleValue
4.756

@<SCITEGIC>MOL_PROPERTY
Coulomb
SciTegic.value.DoubleValue
19.829

@<SCITEGIC>MOL_PROPERTY
VdW
SciTegic.value.DoubleValue
1.410

@<SCITEGIC>MOL_PROPERTY
VdW6
SciTegic.value.DoubleValue
-9.885

@<SCITEGIC>MOL_PROPERTY
VdW12
SciTegic.value.DoubleValue
11.295

@<SCITEGIC>MOL_PROPERTY
Bond
SciTegic.value.DoubleValue
0.310

@<SCITEGIC>MOL_PROPERTY
Angle
SciTegic.value.DoubleValue
1.687

@<SCITEGIC>MOL_PROPERTY
Pdih
SciTegic.value.DoubleValue
2.759

@<SCITEGIC>MOL_PROPERTY
Idih
SciTegic.value.DoubleValue
0.000

@<SCITEGIC>MOL_PROPERTY
Tether
SciTegic.value.DoubleValue
0.000

@<TRIPOS>MOLECULE
guest-s15_vm2.mol2 : vm2 ligand conformer 53
          29          28           1
SMALL
USER_CHARGES
 
@<TRIPOS>ATOM
       1    C1      20.177938   20.323120   20.079638 C.3        1 MOL1        -0.2426
       2    H1      21.033477   20.893803   19.696003 H          1 MOL1         0.0959
       3    H2      19.574682   20.002835   19.220323 H          1 MOL1         0.0959
       4    H3      19.572236   21.004617   20.689800 H          1 MOL1         0.0959
       5    C2      20.662429   19.107271   20.901148 C.3        1 MOL1        -0.1410
       6    H4      21.253105   19.451905   21.760399 H          1 MOL1         0.0948
       7    H5      21.349270   18.513252   20.282333 H          1 MOL1         0.0948
       8    C3      19.508187   18.189755   21.378087 C.3        1 MOL1        -0.1435
       9    H6      18.997186   17.777741   20.497108 H          1 MOL1         0.0948
      10    H7      19.933643   17.323306   21.901266 H          1 MOL1         0.0948
      11    C4      18.451342   18.874818   22.286102 C.3        1 MOL1        -0.1435
      12    H8      17.706444   18.124517   22.584707 H          1 MOL1         0.0948
      13    H9      17.898616   19.619314   21.697731 H          1 MOL1         0.0948
      14    C5      19.011525   19.559748   23.559476 C.3        1 MOL1        -0.1435
      15    H10     19.685767   20.379301   23.277498 H          1 MOL1         0.0948
      16    H11     18.170632   20.027540   24.087815 H          1 MOL1         0.0948
      17    C6      19.744885   18.583132   24.514233 C.3        1 MOL1        -0.1500
      18    H12     20.594018   18.131156   23.986721 H          1 MOL1         0.0948
      19    H13     19.072858   17.760539   24.792415 H          1 MOL1         0.0948
      20    C7      20.276629   19.273677   25.788797 C.3        1 MOL1         0.1162
      21    H14     20.912937   20.110735   25.485359 H          1 MOL1         0.0910
      22    C8      21.128214   18.293691   26.611540 C.3        1 MOL1        -0.2491
      23    H15     20.534169   17.432348   26.941915 H          1 MOL1         0.0959
      24    H16     21.973076   17.919407   26.020036 H          1 MOL1         0.0959
      25    H17     21.538218   18.787688   27.501070 H          1 MOL1         0.0959
      26    N1      19.174851   19.850790   26.634979 N.4        1 MOL1        -0.5987
      27    H18     19.547558   20.319552   27.465613 H          1 MOL1         0.3605
      28    H19     18.531441   19.122604   26.956343 H          1 MOL1         0.3605
      29    H20     18.625776   20.540210   26.114631 H          1 MOL1         0.3605
@<TRIPOS>BOND
    1     1     2    1
    2     1     3    1
    3     1     4    1
    4     1     5    1
    5     5     6    1
    6     5     7    1
    7     5     8    1
    8     8     9    1
    9     8    10    1
   10     8    11    1
   11    11    12    1
   12    11    13    1
   13    11    14    1
   14    14    15    1
   15    14    16    1
   16    14    17    1
   17    17    18    1
   18    17    19    1
   19    17    20    1
   20    20    21    1
   21    20    22    1
   22    22    23    1
   23    22    24    1
   24    22    25    1
   25    20    26    1
   26    26    27    1
   27    26    28    1
   28    26    29    1
@<TRIPOS>SUBSTRUCTURE
       1 MOL1            1 RESIDUE      1      MOL     
@<SCITEGIC>MOL_PROPERTY
VM2 Rank
SciTegic.value.IntegerValue
53

@<SCITEGIC>MOL_PROPERTY
Conf_Id
SciTegic.value.IntegerValue
193

@<SCITEGIC>MOL_PROPERTY
Probability
SciTegic.value.DoubleValue
0.44

@<SCITEGIC>MOL_PROPERTY
Sum Probability
SciTegic.value.DoubleValue
93.32

@<SCITEGIC>MOL_PROPERTY
Delta G
SciTegic.value.DoubleValue
1.898

@<SCITEGIC>MOL_PROPERTY
G
SciTegic.value.DoubleValue
35.600

@<SCITEGIC>MOL_PROPERTY
E
SciTegic.value.DoubleValue
-2.555

@<SCITEGIC>MOL_PROPERTY
-TS
SciTegic.value.DoubleValue
38.155

@<SCITEGIC>MOL_PROPERTY
U+W
SciTegic.value.DoubleValue
-26.700

@<SCITEGIC>MOL_PROPERTY
U
SciTegic.value.DoubleValue
25.696

@<SCITEGIC>MOL_PROPERTY
W
SciTegic.value.DoubleValue
-52.396

@<SCITEGIC>MOL_PROPERTY
W(PB)
SciTegic.value.DoubleValue
-54.863

@<SCITEGIC>MOL_PROPERTY
W(SA)
SciTegic.value.DoubleValue
2.468

@<SCITEGIC>MOL_PROPERTY
Valence
SciTegic.value.DoubleValue
4.599

@<SCITEGIC>MOL_PROPERTY
Coulomb
SciTegic.value.DoubleValue
20.006

@<SCITEGIC>MOL_PROPERTY
VdW
SciTegic.value.DoubleValue
1.091

@<SCITEGIC>MOL_PROPERTY
VdW6
SciTegic.value.DoubleValue
-10.568

@<SCITEGIC>MOL_PROPERTY
VdW12
SciTegic.value.DoubleValue
11.659

@<SCITEGIC>MOL_PROPERTY
Bond
SciTegic.value.DoubleValue
0.319

@<SCITEGIC>MOL_PROPERTY
Angle
SciTegic.value.DoubleValue
1.895

@<SCITEGIC>MOL_PROPERTY
Pdih
SciTegic.value.DoubleValue
2.384

@<SCITEGIC>MOL_PROPERTY
Idih
SciTegic.value.DoubleValue
0.000

@<SCITEGIC>MOL_PROPERTY
Tether
SciTegic.value.DoubleValue
0.000

@<TRIPOS>MOLECULE
guest-s15_vm2.mol2 : vm2 ligand conformer 54
          29          28           1
SMALL
USER_CHARGES
 
@<TRIPOS>ATOM
       1    C1      19.687405   19.915106   19.606896 C.3        1 MOL1        -0.2426
       2    H1      19.254807   18.999224   19.183772 H          1 MOL1         0.0959
       3    H2      18.868267   20.544236   19.976225 H          1 MOL1         0.0959
       4    H3      20.179926   20.461139   18.791918 H          1 MOL1         0.0959
       5    C2      20.701084   19.585344   20.726049 C.3        1 MOL1        -0.1410
       6    H4      21.092955   20.517230   21.157009 H          1 MOL1         0.0948
       7    H5      21.561729   19.067318   20.280291 H          1 MOL1         0.0948
       8    C3      20.114701   18.695141   21.848300 C.3        1 MOL1        -0.1435
       9    H6      19.727893   17.763351   21.413414 H          1 MOL1         0.0948
      10    H7      20.936959   18.408211   22.516301 H          1 MOL1         0.0948
      11    C4      18.999750   19.391952   22.668632 C.3        1 MOL1        -0.1435
      12    H8      18.179377   19.679126   21.998435 H          1 MOL1         0.0948
      13    H9      19.384743   20.327798   23.094522 H          1 MOL1         0.0948
      14    C5      18.406464   18.499576   23.789847 C.3        1 MOL1        -0.1435
      15    H10     17.589086   19.044719   24.280676 H          1 MOL1         0.0948
      16    H11     17.939581   17.615861   23.333518 H          1 MOL1         0.0948
      17    C6      19.424310   18.027409   24.862439 C.3        1 MOL1        -0.1500
      18    H12     20.127085   17.318807   24.405953 H          1 MOL1         0.0948
      19    H13     18.889140   17.460737   25.635898 H          1 MOL1         0.0948
      20    C7      20.218556   19.173528   25.526827 C.3        1 MOL1         0.1162
      21    H14     20.747411   19.724569   24.743420 H          1 MOL1         0.0910
      22    C8      21.261782   18.607304   26.502754 C.3        1 MOL1        -0.2491
      23    H15     21.955257   17.933776   25.983932 H          1 MOL1         0.0959
      24    H16     21.854173   19.415311   26.949483 H          1 MOL1         0.0959
      25    H17     20.782618   18.045588   27.314404 H          1 MOL1         0.0959
      26    N1      19.321949   20.160638   26.222256 N.4        1 MOL1        -0.5987
      27    H18     19.857985   20.932038   26.629860 H          1 MOL1         0.3605
      28    H19     18.797088   19.716761   26.980490 H          1 MOL1         0.3605
      29    H20     18.642594   20.565817   25.572554 H          1 MOL1         0.3605
@<TRIPOS>BOND
    1     1     2    1
    2     1     3    1
    3     1     4    1
    4     1     5    1
    5     5     6    1
    6     5     7    1
    7     5     8    1
    8     8     9    1
    9     8    10    1
   10     8    11    1
   11    11    12    1
   12    11    13    1
   13    11    14    1
   14    14    15    1
   15    14    16    1
   16    14    17    1
   17    17    18    1
   18    17    19    1
   19    17    20    1
   20    20    21    1
   21    20    22    1
   22    22    23    1
   23    22    24    1
   24    22    25    1
   25    20    26    1
   26    26    27    1
   27    26    28    1
   28    26    29    1
@<TRIPOS>SUBSTRUCTURE
       1 MOL1            1 RESIDUE      1      MOL     
@<SCITEGIC>MOL_PROPERTY
VM2 Rank
SciTegic.value.IntegerValue
54

@<SCITEGIC>MOL_PROPERTY
Conf_Id
SciTegic.value.IntegerValue
478

@<SCITEGIC>MOL_PROPERTY
Probability
SciTegic.value.DoubleValue
0.43

@<SCITEGIC>MOL_PROPERTY
Sum Probability
SciTegic.value.DoubleValue
93.75

@<SCITEGIC>MOL_PROPERTY
Delta G
SciTegic.value.DoubleValue
1.915

@<SCITEGIC>MOL_PROPERTY
G
SciTegic.value.DoubleValue
35.617

@<SCITEGIC>MOL_PROPERTY
E
SciTegic.value.DoubleValue
-2.321

@<SCITEGIC>MOL_PROPERTY
-TS
SciTegic.value.DoubleValue
37.938

@<SCITEGIC>MOL_PROPERTY
U+W
SciTegic.value.DoubleValue
-26.465

@<SCITEGIC>MOL_PROPERTY
U
SciTegic.value.DoubleValue
25.816

@<SCITEGIC>MOL_PROPERTY
W
SciTegic.value.DoubleValue
-52.282

@<SCITEGIC>MOL_PROPERTY
W(PB)
SciTegic.value.DoubleValue
-54.728

@<SCITEGIC>MOL_PROPERTY
W(SA)
SciTegic.value.DoubleValue
2.446

@<SCITEGIC>MOL_PROPERTY
Valence
SciTegic.value.DoubleValue
4.503

@<SCITEGIC>MOL_PROPERTY
Coulomb
SciTegic.value.DoubleValue
20.342

@<SCITEGIC>MOL_PROPERTY
VdW
SciTegic.value.DoubleValue
0.971

@<SCITEGIC>MOL_PROPERTY
VdW6
SciTegic.value.DoubleValue
-10.532

@<SCITEGIC>MOL_PROPERTY
VdW12
SciTegic.value.DoubleValue
11.504

@<SCITEGIC>MOL_PROPERTY
Bond
SciTegic.value.DoubleValue
0.307

@<SCITEGIC>MOL_PROPERTY
Angle
SciTegic.value.DoubleValue
1.715

@<SCITEGIC>MOL_PROPERTY
Pdih
SciTegic.value.DoubleValue
2.481

@<SCITEGIC>MOL_PROPERTY
Idih
SciTegic.value.DoubleValue
0.000

@<SCITEGIC>MOL_PROPERTY
Tether
SciTegic.value.DoubleValue
0.000

@<TRIPOS>MOLECULE
guest-s15_vm2.mol2 : vm2 ligand conformer 55
          29          28           1
SMALL
USER_CHARGES
 
@<TRIPOS>ATOM
       1    C1      19.154967   19.073357   19.295539 C.3        1 MOL1        -0.2426
       2    H1      18.994550   17.987505   19.309936 H          1 MOL1         0.0959
       3    H2      18.243847   19.561061   19.663208 H          1 MOL1         0.0959
       4    H3      19.292391   19.378365   18.250066 H          1 MOL1         0.0959
       5    C2      20.389933   19.463977   20.138880 C.3        1 MOL1        -0.1410
       6    H4      20.508628   20.556509   20.137791 H          1 MOL1         0.0948
       7    H5      21.289187   19.056799   19.655846 H          1 MOL1         0.0948
       8    C3      20.332850   18.944735   21.596021 C.3        1 MOL1        -0.1435
       9    H6      20.214870   17.852468   21.591485 H          1 MOL1         0.0948
      10    H7      21.302901   19.150151   22.066195 H          1 MOL1         0.0948
      11    C4      19.201882   19.590152   22.436706 C.3        1 MOL1        -0.1435
      12    H8      18.233876   19.390540   21.959530 H          1 MOL1         0.0948
      13    H9      19.322775   20.682066   22.445326 H          1 MOL1         0.0948
      14    C5      19.133991   19.063430   23.891492 C.3        1 MOL1        -0.1435
      15    H10     18.227434   19.470061   24.358273 H          1 MOL1         0.0948
      16    H11     19.010398   17.972512   23.872311 H          1 MOL1         0.0948
      17    C6      20.372747   19.446997   24.746538 C.3        1 MOL1        -0.1500
      18    H12     20.549987   20.527157   24.662438 H          1 MOL1         0.0948
      19    H13     21.267963   18.959514   24.341285 H          1 MOL1         0.0948
      20    C7      20.263130   19.084062   26.246335 C.3        1 MOL1         0.1162
      21    H14     21.189019   19.412326   26.728761 H          1 MOL1         0.0910
      22    C8      20.136400   17.566429   26.465291 C.3        1 MOL1        -0.2491
      23    H15     20.949303   17.030456   25.959816 H          1 MOL1         0.0959
      24    H16     20.194129   17.326871   27.534154 H          1 MOL1         0.0959
      25    H17     19.182372   17.180741   26.086537 H          1 MOL1         0.0959
      26    N1      19.150099   19.822862   26.937197 N.4        1 MOL1        -0.5987
      27    H18     18.237826   19.562258   26.554731 H          1 MOL1         0.3605
      28    H19     19.250760   20.836560   26.832380 H          1 MOL1         0.3605
      29    H20     19.132244   19.619036   27.940580 H          1 MOL1         0.3605
@<TRIPOS>BOND
    1     1     2    1
    2     1     3    1
    3     1     4    1
    4     1     5    1
    5     5     6    1
    6     5     7    1
    7     5     8    1
    8     8     9    1
    9     8    10    1
   10     8    11    1
   11    11    12    1
   12    11    13    1
   13    11    14    1
   14    14    15    1
   15    14    16    1
   16    14    17    1
   17    17    18    1
   18    17    19    1
   19    17    20    1
   20    20    21    1
   21    20    22    1
   22    22    23    1
   23    22    24    1
   24    22    25    1
   25    20    26    1
   26    26    27    1
   27    26    28    1
   28    26    29    1
@<TRIPOS>SUBSTRUCTURE
       1 MOL1            1 RESIDUE      1      MOL     
@<SCITEGIC>MOL_PROPERTY
VM2 Rank
SciTegic.value.IntegerValue
55

@<SCITEGIC>MOL_PROPERTY
Conf_Id
SciTegic.value.IntegerValue
667

@<SCITEGIC>MOL_PROPERTY
Probability
SciTegic.value.DoubleValue
0.42

@<SCITEGIC>MOL_PROPERTY
Sum Probability
SciTegic.value.DoubleValue
94.16

@<SCITEGIC>MOL_PROPERTY
Delta G
SciTegic.value.DoubleValue
1.935

@<SCITEGIC>MOL_PROPERTY
G
SciTegic.value.DoubleValue
35.637

@<SCITEGIC>MOL_PROPERTY
E
SciTegic.value.DoubleValue
-2.058

@<SCITEGIC>MOL_PROPERTY
-TS
SciTegic.value.DoubleValue
37.695

@<SCITEGIC>MOL_PROPERTY
U+W
SciTegic.value.DoubleValue
-26.203

@<SCITEGIC>MOL_PROPERTY
U
SciTegic.value.DoubleValue
25.894

@<SCITEGIC>MOL_PROPERTY
W
SciTegic.value.DoubleValue
-52.097

@<SCITEGIC>MOL_PROPERTY
W(PB)
SciTegic.value.DoubleValue
-54.600

@<SCITEGIC>MOL_PROPERTY
W(SA)
SciTegic.value.DoubleValue
2.503

@<SCITEGIC>MOL_PROPERTY
Valence
SciTegic.value.DoubleValue
4.780

@<SCITEGIC>MOL_PROPERTY
Coulomb
SciTegic.value.DoubleValue
19.659

@<SCITEGIC>MOL_PROPERTY
VdW
SciTegic.value.DoubleValue
1.456

@<SCITEGIC>MOL_PROPERTY
VdW6
SciTegic.value.DoubleValue
-9.843

@<SCITEGIC>MOL_PROPERTY
VdW12
SciTegic.value.DoubleValue
11.299

@<SCITEGIC>MOL_PROPERTY
Bond
SciTegic.value.DoubleValue
0.315

@<SCITEGIC>MOL_PROPERTY
Angle
SciTegic.value.DoubleValue
1.725

@<SCITEGIC>MOL_PROPERTY
Pdih
SciTegic.value.DoubleValue
2.740

@<SCITEGIC>MOL_PROPERTY
Idih
SciTegic.value.DoubleValue
0.000

@<SCITEGIC>MOL_PROPERTY
Tether
SciTegic.value.DoubleValue
0.000

@<TRIPOS>MOLECULE
guest-s15_vm2.mol2 : vm2 ligand conformer 56
          29          28           1
SMALL
USER_CHARGES
 
@<TRIPOS>ATOM
       1    C1      18.894991   20.213555   20.247848 C.3        1 MOL1        -0.2426
       2    H1      19.380286   21.022395   20.808058 H          1 MOL1         0.0959
       3    H2      19.454669   20.056283   19.316749 H          1 MOL1         0.0959
       4    H3      17.886500   20.554596   19.980571 H          1 MOL1         0.0959
       5    C2      18.824288   18.912681   21.078850 C.3        1 MOL1        -0.1410
       6    H4      18.237577   18.168773   20.522161 H          1 MOL1         0.0948
       7    H5      18.271210   19.096915   22.009409 H          1 MOL1         0.0948
       8    C3      20.216370   18.308732   21.393643 C.3        1 MOL1        -0.1435
       9    H6      20.080573   17.363332   21.935367 H          1 MOL1         0.0948
      10    H7      20.706404   18.037908   20.448390 H          1 MOL1         0.0948
      11    C4      21.170678   19.231949   22.198160 C.3        1 MOL1        -0.1435
      12    H8      21.445603   20.096676   21.579641 H          1 MOL1         0.0948
      13    H9      22.109403   18.691459   22.381573 H          1 MOL1         0.0948
      14    C5      20.611353   19.740497   23.551546 C.3        1 MOL1        -0.1435
      15    H10     21.366753   20.389086   24.016367 H          1 MOL1         0.0948
      16    H11     19.734990   20.375603   23.370603 H          1 MOL1         0.0948
      17    C6      20.253416   18.598376   24.536171 C.3        1 MOL1        -0.1500
      18    H12     21.118625   17.929097   24.632535 H          1 MOL1         0.0948
      19    H13     19.431281   17.994335   24.131869 H          1 MOL1         0.0948
      20    C7      19.864445   19.115820   25.937551 C.3        1 MOL1         0.1162
      21    H14     20.686897   19.730054   26.316895 H          1 MOL1         0.0910
      22    C8      19.655634   17.938549   26.903264 C.3        1 MOL1        -0.2491
      23    H15     19.414902   18.300536   27.910441 H          1 MOL1         0.0959
      24    H16     18.836313   17.290351   26.567882 H          1 MOL1         0.0959
      25    H17     20.564992   17.329175   26.977291 H          1 MOL1         0.0959
      26    N1      18.644825   19.995841   25.906967 N.4        1 MOL1        -0.5987
      27    H18     18.414779   20.348226   26.840548 H          1 MOL1         0.3605
      28    H19     17.826925   19.487431   25.560662 H          1 MOL1         0.3605
      29    H20     18.785326   20.807200   25.299024 H          1 MOL1         0.3605
@<TRIPOS>BOND
    1     1     2    1
    2     1     3    1
    3     1     4    1
    4     1     5    1
    5     5     6    1
    6     5     7    1
    7     5     8    1
    8     8     9    1
    9     8    10    1
   10     8    11    1
   11    11    12    1
   12    11    13    1
   13    11    14    1
   14    14    15    1
   15    14    16    1
   16    14    17    1
   17    17    18    1
   18    17    19    1
   19    17    20    1
   20    20    21    1
   21    20    22    1
   22    22    23    1
   23    22    24    1
   24    22    25    1
   25    20    26    1
   26    26    27    1
   27    26    28    1
   28    26    29    1
@<TRIPOS>SUBSTRUCTURE
       1 MOL1            1 RESIDUE      1      MOL     
@<SCITEGIC>MOL_PROPERTY
VM2 Rank
SciTegic.value.IntegerValue
56

@<SCITEGIC>MOL_PROPERTY
Conf_Id
SciTegic.value.IntegerValue
512

@<SCITEGIC>MOL_PROPERTY
Probability
SciTegic.value.DoubleValue
0.39

@<SCITEGIC>MOL_PROPERTY
Sum Probability
SciTegic.value.DoubleValue
94.56

@<SCITEGIC>MOL_PROPERTY
Delta G
SciTegic.value.DoubleValue
1.971

@<SCITEGIC>MOL_PROPERTY
G
SciTegic.value.DoubleValue
35.673

@<SCITEGIC>MOL_PROPERTY
E
SciTegic.value.DoubleValue
-2.498

@<SCITEGIC>MOL_PROPERTY
-TS
SciTegic.value.DoubleValue
38.172

@<SCITEGIC>MOL_PROPERTY
U+W
SciTegic.value.DoubleValue
-26.643

@<SCITEGIC>MOL_PROPERTY
U
SciTegic.value.DoubleValue
26.016

@<SCITEGIC>MOL_PROPERTY
W
SciTegic.value.DoubleValue
-52.659

@<SCITEGIC>MOL_PROPERTY
W(PB)
SciTegic.value.DoubleValue
-55.102

@<SCITEGIC>MOL_PROPERTY
W(SA)
SciTegic.value.DoubleValue
2.443

@<SCITEGIC>MOL_PROPERTY
Valence
SciTegic.value.DoubleValue
4.552

@<SCITEGIC>MOL_PROPERTY
Coulomb
SciTegic.value.DoubleValue
20.496

@<SCITEGIC>MOL_PROPERTY
VdW
SciTegic.value.DoubleValue
0.968

@<SCITEGIC>MOL_PROPERTY
VdW6
SciTegic.value.DoubleValue
-10.659

@<SCITEGIC>MOL_PROPERTY
VdW12
SciTegic.value.DoubleValue
11.627

@<SCITEGIC>MOL_PROPERTY
Bond
SciTegic.value.DoubleValue
0.311

@<SCITEGIC>MOL_PROPERTY
Angle
SciTegic.value.DoubleValue
1.812

@<SCITEGIC>MOL_PROPERTY
Pdih
SciTegic.value.DoubleValue
2.428

@<SCITEGIC>MOL_PROPERTY
Idih
SciTegic.value.DoubleValue
0.000

@<SCITEGIC>MOL_PROPERTY
Tether
SciTegic.value.DoubleValue
0.000

@<TRIPOS>MOLECULE
guest-s15_vm2.mol2 : vm2 ligand conformer 57
          29          28           1
SMALL
USER_CHARGES
 
@<TRIPOS>ATOM
       1    C1      19.090326   19.173945   19.307332 C.3        1 MOL1        -0.2426
       2    H1      18.842413   18.137511   19.567173 H          1 MOL1         0.0959
       3    H2      18.192141   19.789036   19.448540 H          1 MOL1         0.0959
       4    H3      19.345848   19.193354   18.239970 H          1 MOL1         0.0959
       5    C2      20.268040   19.707314   20.154376 C.3        1 MOL1        -0.1410
       6    H4      20.559841   20.694438   19.769396 H          1 MOL1         0.0948
       7    H5      21.143236   19.055654   20.023644 H          1 MOL1         0.0948
       8    C3      19.935592   19.842077   21.660210 C.3        1 MOL1        -0.1435
       9    H6      20.775842   20.353111   22.146809 H          1 MOL1         0.0948
      10    H7      19.060702   20.494704   21.785156 H          1 MOL1         0.0948
      11    C4      19.678762   18.482405   22.358805 C.3        1 MOL1        -0.1435
      12    H8      20.554870   17.830737   22.237451 H          1 MOL1         0.0948
      13    H9      18.843294   17.971561   21.863211 H          1 MOL1         0.0948
      14    C5      19.332172   18.612549   23.862706 C.3        1 MOL1        -0.1435
      15    H10     18.465246   19.276616   23.977110 H          1 MOL1         0.0948
      16    H11     19.015464   17.624554   24.220617 H          1 MOL1         0.0948
      17    C6      20.516659   19.121902   24.729284 C.3        1 MOL1        -0.1500
      18    H12     20.812420   20.124315   24.397569 H          1 MOL1         0.0948
      19    H13     21.390660   18.477840   24.565431 H          1 MOL1         0.0948
      20    C7      20.228222   19.192324   26.247646 C.3        1 MOL1         0.1162
      21    H14     21.115631   19.617452   26.726745 H          1 MOL1         0.0910
      22    C8      19.993590   17.800530   26.860541 C.3        1 MOL1        -0.2491
      23    H15     19.935596   17.868682   27.953788 H          1 MOL1         0.0959
      24    H16     19.059265   17.351100   26.504236 H          1 MOL1         0.0959
      25    H17     20.818848   17.121243   26.613396 H          1 MOL1         0.0959
      26    N1      19.092636   20.122953   26.573100 N.4        1 MOL1        -0.5987
      27    H18     18.954718   20.205618   27.584425 H          1 MOL1         0.3605
      28    H19     18.213605   19.790203   26.169153 H          1 MOL1         0.3605
      29    H20     19.263060   21.064740   26.208920 H          1 MOL1         0.3605
@<TRIPOS>BOND
    1     1     2    1
    2     1     3    1
    3     1     4    1
    4     1     5    1
    5     5     6    1
    6     5     7    1
    7     5     8    1
    8     8     9    1
    9     8    10    1
   10     8    11    1
   11    11    12    1
   12    11    13    1
   13    11    14    1
   14    14    15    1
   15    14    16    1
   16    14    17    1
   17    17    18    1
   18    17    19    1
   19    17    20    1
   20    20    21    1
   21    20    22    1
   22    22    23    1
   23    22    24    1
   24    22    25    1
   25    20    26    1
   26    26    27    1
   27    26    28    1
   28    26    29    1
@<TRIPOS>SUBSTRUCTURE
       1 MOL1            1 RESIDUE      1      MOL     
@<SCITEGIC>MOL_PROPERTY
VM2 Rank
SciTegic.value.IntegerValue
57

@<SCITEGIC>MOL_PROPERTY
Conf_Id
SciTegic.value.IntegerValue
864

@<SCITEGIC>MOL_PROPERTY
Probability
SciTegic.value.DoubleValue
0.39

@<SCITEGIC>MOL_PROPERTY
Sum Probability
SciTegic.value.DoubleValue
94.94

@<SCITEGIC>MOL_PROPERTY
Delta G
SciTegic.value.DoubleValue
1.975

@<SCITEGIC>MOL_PROPERTY
G
SciTegic.value.DoubleValue
35.677

@<SCITEGIC>MOL_PROPERTY
E
SciTegic.value.DoubleValue
-1.953

@<SCITEGIC>MOL_PROPERTY
-TS
SciTegic.value.DoubleValue
37.630

@<SCITEGIC>MOL_PROPERTY
U+W
SciTegic.value.DoubleValue
-26.098

@<SCITEGIC>MOL_PROPERTY
U
SciTegic.value.DoubleValue
26.188

@<SCITEGIC>MOL_PROPERTY
W
SciTegic.value.DoubleValue
-52.286

@<SCITEGIC>MOL_PROPERTY
W(PB)
SciTegic.value.DoubleValue
-54.796

@<SCITEGIC>MOL_PROPERTY
W(SA)
SciTegic.value.DoubleValue
2.510

@<SCITEGIC>MOL_PROPERTY
Valence
SciTegic.value.DoubleValue
4.872

@<SCITEGIC>MOL_PROPERTY
Coulomb
SciTegic.value.DoubleValue
19.830

@<SCITEGIC>MOL_PROPERTY
VdW
SciTegic.value.DoubleValue
1.486

@<SCITEGIC>MOL_PROPERTY
VdW6
SciTegic.value.DoubleValue
-9.786

@<SCITEGIC>MOL_PROPERTY
VdW12
SciTegic.value.DoubleValue
11.273

@<SCITEGIC>MOL_PROPERTY
Bond
SciTegic.value.DoubleValue
0.320

@<SCITEGIC>MOL_PROPERTY
Angle
SciTegic.value.DoubleValue
1.789

@<SCITEGIC>MOL_PROPERTY
Pdih
SciTegic.value.DoubleValue
2.762

@<SCITEGIC>MOL_PROPERTY
Idih
SciTegic.value.DoubleValue
0.000

@<SCITEGIC>MOL_PROPERTY
Tether
SciTegic.value.DoubleValue
0.000

@<TRIPOS>MOLECULE
guest-s15_vm2.mol2 : vm2 ligand conformer 58
          29          28           1
SMALL
USER_CHARGES
 
@<TRIPOS>ATOM
       1    C1      20.287439   18.594724   19.820545 C.3        1 MOL1        -0.2426
       2    H1      21.154963   19.193980   19.515198 H          1 MOL1         0.0959
       3    H2      20.618587   17.867327   20.572184 H          1 MOL1         0.0959
       4    H3      19.942870   18.030742   18.944173 H          1 MOL1         0.0959
       5    C2      19.155082   19.494480   20.364786 C.3        1 MOL1        -0.1410
       6    H4      18.307770   18.872652   20.682949 H          1 MOL1         0.0948
       7    H5      18.775916   20.120161   19.544796 H          1 MOL1         0.0948
       8    C3      19.605977   20.420949   21.522834 C.3        1 MOL1        -0.1435
       9    H6      20.362272   21.120607   21.141225 H          1 MOL1         0.0948
      10    H7      18.753215   21.040564   21.832538 H          1 MOL1         0.0948
      11    C4      20.183082   19.698679   22.767770 C.3        1 MOL1        -0.1435
      12    H8      20.490339   20.466874   23.489138 H          1 MOL1         0.0948
      13    H9      21.098694   19.157536   22.494975 H          1 MOL1         0.0948
      14    C5      19.180293   18.726440   23.439203 C.3        1 MOL1        -0.1435
      15    H10     18.254595   19.260913   23.690191 H          1 MOL1         0.0948
      16    H11     18.895771   17.943793   22.724036 H          1 MOL1         0.0948
      17    C6      19.753819   18.033003   24.701713 C.3        1 MOL1        -0.1500
      18    H12     20.625416   17.432443   24.409147 H          1 MOL1         0.0948
      19    H13     19.009523   17.324239   25.088413 H          1 MOL1         0.0948
      20    C7      20.167346   19.003652   25.830682 C.3        1 MOL1         0.1162
      21    H14     20.928316   19.684957   25.439184 H          1 MOL1         0.0910
      22    C8      20.780929   18.226419   27.005920 C.3        1 MOL1        -0.2491
      23    H15     21.113043   18.913119   27.794287 H          1 MOL1         0.0959
      24    H16     20.055239   17.529234   27.443206 H          1 MOL1         0.0959
      25    H17     21.654266   17.649218   26.677490 H          1 MOL1         0.0959
      26    N1      19.022033   19.857654   26.300548 N.4        1 MOL1        -0.5987
      27    H18     18.630372   20.408030   25.531362 H          1 MOL1         0.3605
      28    H19     19.317521   20.513115   27.029667 H          1 MOL1         0.3605
      29    H20     18.266289   19.286727   26.688273 H          1 MOL1         0.3605
@<TRIPOS>BOND
    1     1     2    1
    2     1     3    1
    3     1     4    1
    4     1     5    1
    5     5     6    1
    6     5     7    1
    7     5     8    1
    8     8     9    1
    9     8    10    1
   10     8    11    1
   11    11    12    1
   12    11    13    1
   13    11    14    1
   14    14    15    1
   15    14    16    1
   16    14    17    1
   17    17    18    1
   18    17    19    1
   19    17    20    1
   20    20    21    1
   21    20    22    1
   22    22    23    1
   23    22    24    1
   24    22    25    1
   25    20    26    1
   26    26    27    1
   27    26    28    1
   28    26    29    1
@<TRIPOS>SUBSTRUCTURE
       1 MOL1            1 RESIDUE      1      MOL     
@<SCITEGIC>MOL_PROPERTY
VM2 Rank
SciTegic.value.IntegerValue
58

@<SCITEGIC>MOL_PROPERTY
Conf_Id
SciTegic.value.IntegerValue
699

@<SCITEGIC>MOL_PROPERTY
Probability
SciTegic.value.DoubleValue
0.38

@<SCITEGIC>MOL_PROPERTY
Sum Probability
SciTegic.value.DoubleValue
95.32

@<SCITEGIC>MOL_PROPERTY
Delta G
SciTegic.value.DoubleValue
1.988

@<SCITEGIC>MOL_PROPERTY
G
SciTegic.value.DoubleValue
35.690

@<SCITEGIC>MOL_PROPERTY
E
SciTegic.value.DoubleValue
-2.306

@<SCITEGIC>MOL_PROPERTY
-TS
SciTegic.value.DoubleValue
37.996

@<SCITEGIC>MOL_PROPERTY
U+W
SciTegic.value.DoubleValue
-26.451

@<SCITEGIC>MOL_PROPERTY
U
SciTegic.value.DoubleValue
25.812

@<SCITEGIC>MOL_PROPERTY
W
SciTegic.value.DoubleValue
-52.263

@<SCITEGIC>MOL_PROPERTY
W(PB)
SciTegic.value.DoubleValue
-54.731

@<SCITEGIC>MOL_PROPERTY
W(SA)
SciTegic.value.DoubleValue
2.468

@<SCITEGIC>MOL_PROPERTY
Valence
SciTegic.value.DoubleValue
4.469

@<SCITEGIC>MOL_PROPERTY
Coulomb
SciTegic.value.DoubleValue
20.263

@<SCITEGIC>MOL_PROPERTY
VdW
SciTegic.value.DoubleValue
1.081

@<SCITEGIC>MOL_PROPERTY
VdW6
SciTegic.value.DoubleValue
-10.395

@<SCITEGIC>MOL_PROPERTY
VdW12
SciTegic.value.DoubleValue
11.476

@<SCITEGIC>MOL_PROPERTY
Bond
SciTegic.value.DoubleValue
0.305

@<SCITEGIC>MOL_PROPERTY
Angle
SciTegic.value.DoubleValue
1.805

@<SCITEGIC>MOL_PROPERTY
Pdih
SciTegic.value.DoubleValue
2.359

@<SCITEGIC>MOL_PROPERTY
Idih
SciTegic.value.DoubleValue
0.000

@<SCITEGIC>MOL_PROPERTY
Tether
SciTegic.value.DoubleValue
0.000

@<TRIPOS>MOLECULE
guest-s15_vm2.mol2 : vm2 ligand conformer 59
          29          28           1
SMALL
USER_CHARGES
 
@<TRIPOS>ATOM
       1    C1      21.172928   20.044021   20.771105 C.3        1 MOL1        -0.2426
       2    H1      20.788617   21.024124   20.460221 H          1 MOL1         0.0959
       3    H2      21.439801   20.100233   21.833476 H          1 MOL1         0.0959
       4    H3      22.095299   19.850621   20.208378 H          1 MOL1         0.0959
       5    C2      20.133947   18.931173   20.506203 C.3        1 MOL1        -0.1410
       6    H4      20.532190   17.964406   20.841924 H          1 MOL1         0.0948
       7    H5      19.988089   18.835187   19.421245 H          1 MOL1         0.0948
       8    C3      18.757966   19.202798   21.165972 C.3        1 MOL1        -0.1435
       9    H6      18.328816   20.114905   20.728956 H          1 MOL1         0.0948
      10    H7      18.070052   18.389065   20.898181 H          1 MOL1         0.0948
      11    C4      18.783040   19.354647   22.708583 C.3        1 MOL1        -0.1435
      12    H8      17.760742   19.565180   23.051580 H          1 MOL1         0.0948
      13    H9      19.381335   20.233226   22.981385 H          1 MOL1         0.0948
      14    C5      19.311767   18.096770   23.442458 C.3        1 MOL1        -0.1435
      15    H10     18.757714   17.215963   23.090089 H          1 MOL1         0.0948
      16    H11     20.362349   17.918679   23.181008 H          1 MOL1         0.0948
      17    C6      19.165116   18.186337   24.983235 C.3        1 MOL1        -0.1500
      18    H12     19.542835   17.258640   25.433171 H          1 MOL1         0.0948
      19    H13     18.095507   18.229385   25.227468 H          1 MOL1         0.0948
      20    C7      19.872330   19.396521   25.637622 C.3        1 MOL1         0.1162
      21    H14     19.488648   20.311507   25.176825 H          1 MOL1         0.0910
      22    C8      21.397700   19.352673   25.437837 C.3        1 MOL1        -0.2491
      23    H15     21.823583   18.424511   25.838797 H          1 MOL1         0.0959
      24    H16     21.662271   19.421521   24.376485 H          1 MOL1         0.0959
      25    H17     21.878773   20.196246   25.947954 H          1 MOL1         0.0959
      26    N1      19.541206   19.491060   27.100985 N.4        1 MOL1        -0.5987
      27    H18     18.531392   19.564206   27.255204 H          1 MOL1         0.3605
      28    H19     19.975427   20.313021   27.530509 H          1 MOL1         0.3605
      29    H20     19.871746   18.668592   27.612859 H          1 MOL1         0.3605
@<TRIPOS>BOND
    1     1     2    1
    2     1     3    1
    3     1     4    1
    4     1     5    1
    5     5     6    1
    6     5     7    1
    7     5     8    1
    8     8     9    1
    9     8    10    1
   10     8    11    1
   11    11    12    1
   12    11    13    1
   13    11    14    1
   14    14    15    1
   15    14    16    1
   16    14    17    1
   17    17    18    1
   18    17    19    1
   19    17    20    1
   20    20    21    1
   21    20    22    1
   22    22    23    1
   23    22    24    1
   24    22    25    1
   25    20    26    1
   26    26    27    1
   27    26    28    1
   28    26    29    1
@<TRIPOS>SUBSTRUCTURE
       1 MOL1            1 RESIDUE      1      MOL     
@<SCITEGIC>MOL_PROPERTY
VM2 Rank
SciTegic.value.IntegerValue
59

@<SCITEGIC>MOL_PROPERTY
Conf_Id
SciTegic.value.IntegerValue
199

@<SCITEGIC>MOL_PROPERTY
Probability
SciTegic.value.DoubleValue
0.37

@<SCITEGIC>MOL_PROPERTY
Sum Probability
SciTegic.value.DoubleValue
95.69

@<SCITEGIC>MOL_PROPERTY
Delta G
SciTegic.value.DoubleValue
2.005

@<SCITEGIC>MOL_PROPERTY
G
SciTegic.value.DoubleValue
35.706

@<SCITEGIC>MOL_PROPERTY
E
SciTegic.value.DoubleValue
-2.506

@<SCITEGIC>MOL_PROPERTY
-TS
SciTegic.value.DoubleValue
38.213

@<SCITEGIC>MOL_PROPERTY
U+W
SciTegic.value.DoubleValue
-26.651

@<SCITEGIC>MOL_PROPERTY
U
SciTegic.value.DoubleValue
25.905

@<SCITEGIC>MOL_PROPERTY
W
SciTegic.value.DoubleValue
-52.556

@<SCITEGIC>MOL_PROPERTY
W(PB)
SciTegic.value.DoubleValue
-54.968

@<SCITEGIC>MOL_PROPERTY
W(SA)
SciTegic.value.DoubleValue
2.412

@<SCITEGIC>MOL_PROPERTY
Valence
SciTegic.value.DoubleValue
4.892

@<SCITEGIC>MOL_PROPERTY
Coulomb
SciTegic.value.DoubleValue
20.130

@<SCITEGIC>MOL_PROPERTY
VdW
SciTegic.value.DoubleValue
0.883

@<SCITEGIC>MOL_PROPERTY
VdW6
SciTegic.value.DoubleValue
-10.963

@<SCITEGIC>MOL_PROPERTY
VdW12
SciTegic.value.DoubleValue
11.845

@<SCITEGIC>MOL_PROPERTY
Bond
SciTegic.value.DoubleValue
0.307

@<SCITEGIC>MOL_PROPERTY
Angle
SciTegic.value.DoubleValue
2.002

@<SCITEGIC>MOL_PROPERTY
Pdih
SciTegic.value.DoubleValue
2.583

@<SCITEGIC>MOL_PROPERTY
Idih
SciTegic.value.DoubleValue
0.000

@<SCITEGIC>MOL_PROPERTY
Tether
SciTegic.value.DoubleValue
0.000

@<TRIPOS>MOLECULE
guest-s15_vm2.mol2 : vm2 ligand conformer 60
          29          28           1
SMALL
USER_CHARGES
 
@<TRIPOS>ATOM
       1    C1      20.367976   20.735192   20.617694 C.3        1 MOL1        -0.2426
       2    H1      19.914929   21.474336   21.291060 H          1 MOL1         0.0959
       3    H2      21.351859   20.461771   21.018533 H          1 MOL1         0.0959
       4    H3      20.530688   21.220743   19.646782 H          1 MOL1         0.0959
       5    C2      19.456471   19.497452   20.457127 C.3        1 MOL1        -0.1410
       6    H4      19.943912   18.761246   19.802840 H          1 MOL1         0.0948
       7    H5      18.533363   19.801379   19.944076 H          1 MOL1         0.0948
       8    C3      19.081047   18.834515   21.803972 C.3        1 MOL1        -0.1435
       9    H6      18.575274   19.574315   22.438187 H          1 MOL1         0.0948
      10    H7      18.349315   18.038139   21.610543 H          1 MOL1         0.0948
      11    C4      20.297470   18.232590   22.551282 C.3        1 MOL1        -0.1435
      12    H8      20.998939   19.028126   22.832460 H          1 MOL1         0.0948
      13    H9      20.846366   17.571244   21.866936 H          1 MOL1         0.0948
      14    C5      19.904392   17.417820   23.810320 C.3        1 MOL1        -0.1435
      15    H10     19.293968   16.557237   23.503959 H          1 MOL1         0.0948
      16    H11     20.812719   16.990520   24.255686 H          1 MOL1         0.0948
      17    C6      19.128249   18.220697   24.888755 C.3        1 MOL1        -0.1500
      18    H12     18.961463   17.575779   25.761634 H          1 MOL1         0.0948
      19    H13     18.130203   18.460075   24.500208 H          1 MOL1         0.0948
      20    C7      19.814064   19.529813   25.344422 C.3        1 MOL1         0.1162
      21    H14     19.986840   20.153122   24.461953 H          1 MOL1         0.0910
      22    C8      21.167610   19.263548   26.026562 C.3        1 MOL1        -0.2491
      23    H15     21.050591   18.604079   26.895485 H          1 MOL1         0.0959
      24    H16     21.876908   18.795653   25.333987 H          1 MOL1         0.0959
      25    H17     21.618805   20.202563   26.369952 H          1 MOL1         0.0959
      26    N1      18.918721   20.324373   26.253866 N.4        1 MOL1        -0.5987
      27    H18     19.354261   21.210004   26.527034 H          1 MOL1         0.3605
      28    H19     18.708326   19.809960   27.113432 H          1 MOL1         0.3605
      29    H20     18.026894   20.549174   25.803520 H          1 MOL1         0.3605
@<TRIPOS>BOND
    1     1     2    1
    2     1     3    1
    3     1     4    1
    4     1     5    1
    5     5     6    1
    6     5     7    1
    7     5     8    1
    8     8     9    1
    9     8    10    1
   10     8    11    1
   11    11    12    1
   12    11    13    1
   13    11    14    1
   14    14    15    1
   15    14    16    1
   16    14    17    1
   17    17    18    1
   18    17    19    1
   19    17    20    1
   20    20    21    1
   21    20    22    1
   22    22    23    1
   23    22    24    1
   24    22    25    1
   25    20    26    1
   26    26    27    1
   27    26    28    1
   28    26    29    1
@<TRIPOS>SUBSTRUCTURE
       1 MOL1            1 RESIDUE      1      MOL     
@<SCITEGIC>MOL_PROPERTY
VM2 Rank
SciTegic.value.IntegerValue
60

@<SCITEGIC>MOL_PROPERTY
Conf_Id
SciTegic.value.IntegerValue
257

@<SCITEGIC>MOL_PROPERTY
Probability
SciTegic.value.DoubleValue
0.35

@<SCITEGIC>MOL_PROPERTY
Sum Probability
SciTegic.value.DoubleValue
96.04

@<SCITEGIC>MOL_PROPERTY
Delta G
SciTegic.value.DoubleValue
2.035

@<SCITEGIC>MOL_PROPERTY
G
SciTegic.value.DoubleValue
35.737

@<SCITEGIC>MOL_PROPERTY
E
SciTegic.value.DoubleValue
-2.370

@<SCITEGIC>MOL_PROPERTY
-TS
SciTegic.value.DoubleValue
38.107

@<SCITEGIC>MOL_PROPERTY
U+W
SciTegic.value.DoubleValue
-26.515

@<SCITEGIC>MOL_PROPERTY
U
SciTegic.value.DoubleValue
26.272

@<SCITEGIC>MOL_PROPERTY
W
SciTegic.value.DoubleValue
-52.787

@<SCITEGIC>MOL_PROPERTY
W(PB)
SciTegic.value.DoubleValue
-55.204

@<SCITEGIC>MOL_PROPERTY
W(SA)
SciTegic.value.DoubleValue
2.416

@<SCITEGIC>MOL_PROPERTY
Valence
SciTegic.value.DoubleValue
4.866

@<SCITEGIC>MOL_PROPERTY
Coulomb
SciTegic.value.DoubleValue
20.504

@<SCITEGIC>MOL_PROPERTY
VdW
SciTegic.value.DoubleValue
0.903

@<SCITEGIC>MOL_PROPERTY
VdW6
SciTegic.value.DoubleValue
-10.948

@<SCITEGIC>MOL_PROPERTY
VdW12
SciTegic.value.DoubleValue
11.851

@<SCITEGIC>MOL_PROPERTY
Bond
SciTegic.value.DoubleValue
0.308

@<SCITEGIC>MOL_PROPERTY
Angle
SciTegic.value.DoubleValue
1.874

@<SCITEGIC>MOL_PROPERTY
Pdih
SciTegic.value.DoubleValue
2.685

@<SCITEGIC>MOL_PROPERTY
Idih
SciTegic.value.DoubleValue
0.000

@<SCITEGIC>MOL_PROPERTY
Tether
SciTegic.value.DoubleValue
0.000

@<TRIPOS>MOLECULE
guest-s15_vm2.mol2 : vm2 ligand conformer 61
          29          28           1
SMALL
USER_CHARGES
 
@<TRIPOS>ATOM
       1    C1      19.322876   20.643713   19.937274 C.3        1 MOL1        -0.2426
       2    H1      20.075549   21.384434   20.237311 H          1 MOL1         0.0959
       3    H2      19.659997   20.171627   19.005240 H          1 MOL1         0.0959
       4    H3      18.388567   21.179346   19.724755 H          1 MOL1         0.0959
       5    C2      19.107789   19.592006   21.046022 C.3        1 MOL1        -0.1410
       6    H4      18.329890   18.882848   20.730484 H          1 MOL1         0.0948
       7    H5      18.733858   20.096191   21.946908 H          1 MOL1         0.0948
       8    C3      20.413022   18.826494   21.366547 C.3        1 MOL1        -0.1435
       9    H6      20.810230   18.395081   20.437417 H          1 MOL1         0.0948
      10    H7      21.178319   19.529094   21.721480 H          1 MOL1         0.0948
      11    C4      20.225604   17.679781   22.393610 C.3        1 MOL1        -0.1435
      12    H8      21.191879   17.178421   22.542220 H          1 MOL1         0.0948
      13    H9      19.558608   16.921861   21.960185 H          1 MOL1         0.0948
      14    C5      19.662245   18.104738   23.774579 C.3        1 MOL1        -0.1435
      15    H10     18.644608   18.496342   23.652665 H          1 MOL1         0.0948
      16    H11     19.567140   17.200257   24.388866 H          1 MOL1         0.0948
      17    C6      20.552795   19.142270   24.511310 C.3        1 MOL1        -0.1500
      18    H12     20.623944   20.057123   23.910385 H          1 MOL1         0.0948
      19    H13     21.575602   18.751269   24.591743 H          1 MOL1         0.0948
      20    C7      20.058210   19.539218   25.922315 C.3        1 MOL1         0.1162
      21    H14     20.739932   20.307279   26.300582 H          1 MOL1         0.0910
      22    C8      20.100104   18.357602   26.907020 C.3        1 MOL1        -0.2491
      23    H15     19.882948   18.700693   27.926000 H          1 MOL1         0.0959
      24    H16     19.363380   17.587450   26.650059 H          1 MOL1         0.0959
      25    H17     21.094168   17.893616   26.917465 H          1 MOL1         0.0959
      26    N1      18.693356   20.170177   25.895323 N.4        1 MOL1        -0.5987
      27    H18     18.407313   20.481856   26.827902 H          1 MOL1         0.3605
      28    H19     17.986641   19.509949   25.561879 H          1 MOL1         0.3605
      29    H20     18.669712   20.987149   25.278457 H          1 MOL1         0.3605
@<TRIPOS>BOND
    1     1     2    1
    2     1     3    1
    3     1     4    1
    4     1     5    1
    5     5     6    1
    6     5     7    1
    7     5     8    1
    8     8     9    1
    9     8    10    1
   10     8    11    1
   11    11    12    1
   12    11    13    1
   13    11    14    1
   14    14    15    1
   15    14    16    1
   16    14    17    1
   17    17    18    1
   18    17    19    1
   19    17    20    1
   20    20    21    1
   21    20    22    1
   22    22    23    1
   23    22    24    1
   24    22    25    1
   25    20    26    1
   26    26    27    1
   27    26    28    1
   28    26    29    1
@<TRIPOS>SUBSTRUCTURE
       1 MOL1            1 RESIDUE      1      MOL     
@<SCITEGIC>MOL_PROPERTY
VM2 Rank
SciTegic.value.IntegerValue
61

@<SCITEGIC>MOL_PROPERTY
Conf_Id
SciTegic.value.IntegerValue
1277

@<SCITEGIC>MOL_PROPERTY
Probability
SciTegic.value.DoubleValue
0.34

@<SCITEGIC>MOL_PROPERTY
Sum Probability
SciTegic.value.DoubleValue
96.38

@<SCITEGIC>MOL_PROPERTY
Delta G
SciTegic.value.DoubleValue
2.056

@<SCITEGIC>MOL_PROPERTY
G
SciTegic.value.DoubleValue
35.758

@<SCITEGIC>MOL_PROPERTY
E
SciTegic.value.DoubleValue
-2.204

@<SCITEGIC>MOL_PROPERTY
-TS
SciTegic.value.DoubleValue
37.962

@<SCITEGIC>MOL_PROPERTY
U+W
SciTegic.value.DoubleValue
-26.348

@<SCITEGIC>MOL_PROPERTY
U
SciTegic.value.DoubleValue
26.385

@<SCITEGIC>MOL_PROPERTY
W
SciTegic.value.DoubleValue
-52.734

@<SCITEGIC>MOL_PROPERTY
W(PB)
SciTegic.value.DoubleValue
-55.179

@<SCITEGIC>MOL_PROPERTY
W(SA)
SciTegic.value.DoubleValue
2.445

@<SCITEGIC>MOL_PROPERTY
Valence
SciTegic.value.DoubleValue
4.726

@<SCITEGIC>MOL_PROPERTY
Coulomb
SciTegic.value.DoubleValue
20.482

@<SCITEGIC>MOL_PROPERTY
VdW
SciTegic.value.DoubleValue
1.177

@<SCITEGIC>MOL_PROPERTY
VdW6
SciTegic.value.DoubleValue
-10.349

@<SCITEGIC>MOL_PROPERTY
VdW12
SciTegic.value.DoubleValue
11.526

@<SCITEGIC>MOL_PROPERTY
Bond
SciTegic.value.DoubleValue
0.319

@<SCITEGIC>MOL_PROPERTY
Angle
SciTegic.value.DoubleValue
1.933

@<SCITEGIC>MOL_PROPERTY
Pdih
SciTegic.value.DoubleValue
2.474

@<SCITEGIC>MOL_PROPERTY
Idih
SciTegic.value.DoubleValue
0.000

@<SCITEGIC>MOL_PROPERTY
Tether
SciTegic.value.DoubleValue
0.000

@<TRIPOS>MOLECULE
guest-s15_vm2.mol2 : vm2 ligand conformer 62
          29          28           1
SMALL
USER_CHARGES
 
@<TRIPOS>ATOM
       1    C1      20.236872   19.531388   19.573926 C.3        1 MOL1        -0.2426
       2    H1      19.482088   18.844893   19.168906 H          1 MOL1         0.0959
       3    H2      20.515908   20.231816   18.776143 H          1 MOL1         0.0959
       4    H3      21.131119   18.949141   19.827922 H          1 MOL1         0.0959
       5    C2      19.689979   20.298393   20.799242 C.3        1 MOL1        -0.1410
       6    H4      18.879637   20.962019   20.466518 H          1 MOL1         0.0948
       7    H5      20.473953   20.951536   21.207268 H          1 MOL1         0.0948
       8    C3      19.145694   19.373579   21.914676 C.3        1 MOL1        -0.1435
       9    H6      18.663730   20.004950   22.672078 H          1 MOL1         0.0948
      10    H7      18.359038   18.726191   21.503539 H          1 MOL1         0.0948
      11    C4      20.240750   18.505186   22.584246 C.3        1 MOL1        -0.1435
      12    H8      21.032842   19.151752   22.984471 H          1 MOL1         0.0948
      13    H9      20.720011   17.873341   21.825523 H          1 MOL1         0.0948
      14    C5      19.697754   17.576763   23.701428 C.3        1 MOL1        -0.1435
      15    H10     18.977567   16.872703   23.262425 H          1 MOL1         0.0948
      16    H11     20.521965   16.956772   24.078699 H          1 MOL1         0.0948
      17    C6      19.018353   18.307671   24.890759 C.3        1 MOL1        -0.1500
      18    H12     18.743086   17.566675   25.652880 H          1 MOL1         0.0948
      19    H13     18.072292   18.743029   24.545025 H          1 MOL1         0.0948
      20    C7      19.871575   19.419190   25.544992 C.3        1 MOL1         0.1162
      21    H14     20.150615   20.139840   24.770508 H          1 MOL1         0.0910
      22    C8      21.158023   18.859953   26.178000 C.3        1 MOL1        -0.2491
      23    H15     21.809437   18.407307   25.421373 H          1 MOL1         0.0959
      24    H16     21.729670   19.660498   26.663377 H          1 MOL1         0.0959
      25    H17     20.929186   18.098364   26.933803 H          1 MOL1         0.0959
      26    N1      19.077001   20.183877   26.566731 N.4        1 MOL1        -0.5987
      27    H18     19.626906   20.945380   26.974635 H          1 MOL1         0.3605
      28    H19     18.776597   19.578660   27.335631 H          1 MOL1         0.3605
      29    H20     18.236326   20.600646   26.156501 H          1 MOL1         0.3605
@<TRIPOS>BOND
    1     1     2    1
    2     1     3    1
    3     1     4    1
    4     1     5    1
    5     5     6    1
    6     5     7    1
    7     5     8    1
    8     8     9    1
    9     8    10    1
   10     8    11    1
   11    11    12    1
   12    11    13    1
   13    11    14    1
   14    14    15    1
   15    14    16    1
   16    14    17    1
   17    17    18    1
   18    17    19    1
   19    17    20    1
   20    20    21    1
   21    20    22    1
   22    22    23    1
   23    22    24    1
   24    22    25    1
   25    20    26    1
   26    26    27    1
   27    26    28    1
   28    26    29    1
@<TRIPOS>SUBSTRUCTURE
       1 MOL1            1 RESIDUE      1      MOL     
@<SCITEGIC>MOL_PROPERTY
VM2 Rank
SciTegic.value.IntegerValue
62

@<SCITEGIC>MOL_PROPERTY
Conf_Id
SciTegic.value.IntegerValue
1232

@<SCITEGIC>MOL_PROPERTY
Probability
SciTegic.value.DoubleValue
0.28

@<SCITEGIC>MOL_PROPERTY
Sum Probability
SciTegic.value.DoubleValue
96.66

@<SCITEGIC>MOL_PROPERTY
Delta G
SciTegic.value.DoubleValue
2.173

@<SCITEGIC>MOL_PROPERTY
G
SciTegic.value.DoubleValue
35.874

@<SCITEGIC>MOL_PROPERTY
E
SciTegic.value.DoubleValue
-2.187

@<SCITEGIC>MOL_PROPERTY
-TS
SciTegic.value.DoubleValue
38.062

@<SCITEGIC>MOL_PROPERTY
U+W
SciTegic.value.DoubleValue
-26.332

@<SCITEGIC>MOL_PROPERTY
U
SciTegic.value.DoubleValue
26.391

@<SCITEGIC>MOL_PROPERTY
W
SciTegic.value.DoubleValue
-52.723

@<SCITEGIC>MOL_PROPERTY
W(PB)
SciTegic.value.DoubleValue
-55.159

@<SCITEGIC>MOL_PROPERTY
W(SA)
SciTegic.value.DoubleValue
2.436

@<SCITEGIC>MOL_PROPERTY
Valence
SciTegic.value.DoubleValue
4.975

@<SCITEGIC>MOL_PROPERTY
Coulomb
SciTegic.value.DoubleValue
20.373

@<SCITEGIC>MOL_PROPERTY
VdW
SciTegic.value.DoubleValue
1.043

@<SCITEGIC>MOL_PROPERTY
VdW6
SciTegic.value.DoubleValue
-10.751

@<SCITEGIC>MOL_PROPERTY
VdW12
SciTegic.value.DoubleValue
11.795

@<SCITEGIC>MOL_PROPERTY
Bond
SciTegic.value.DoubleValue
0.316

@<SCITEGIC>MOL_PROPERTY
Angle
SciTegic.value.DoubleValue
1.997

@<SCITEGIC>MOL_PROPERTY
Pdih
SciTegic.value.DoubleValue
2.662

@<SCITEGIC>MOL_PROPERTY
Idih
SciTegic.value.DoubleValue
0.000

@<SCITEGIC>MOL_PROPERTY
Tether
SciTegic.value.DoubleValue
0.000

@<TRIPOS>MOLECULE
guest-s15_vm2.mol2 : vm2 ligand conformer 63
          29          28           1
SMALL
USER_CHARGES
 
@<TRIPOS>ATOM
       1    C1      18.946328   20.266406   19.913451 C.3        1 MOL1        -0.2426
       2    H1      18.408646   21.025299   20.496699 H          1 MOL1         0.0959
       3    H2      19.780967   20.759092   19.397853 H          1 MOL1         0.0959
       4    H3      18.259759   19.879339   19.149380 H          1 MOL1         0.0959
       5    C2      19.450844   19.124767   20.821074 C.3        1 MOL1        -0.1410
       6    H4      19.957357   18.367165   20.207011 H          1 MOL1         0.0948
       7    H5      18.587448   18.631760   21.287145 H          1 MOL1         0.0948
       8    C3      20.418625   19.646896   21.908660 C.3        1 MOL1        -0.1435
       9    H6      21.239574   20.191931   21.422731 H          1 MOL1         0.0948
      10    H7      19.903462   20.380513   22.542490 H          1 MOL1         0.0948
      11    C4      21.030160   18.522979   22.784240 C.3        1 MOL1        -0.1435
      12    H8      21.748405   18.970851   23.483975 H          1 MOL1         0.0948
      13    H9      21.621312   17.854961   22.142841 H          1 MOL1         0.0948
      14    C5      20.003844   17.669720   23.577148 C.3        1 MOL1        -0.1435
      15    H10     19.394142   17.085617   22.875216 H          1 MOL1         0.0948
      16    H11     20.548496   16.924958   24.172497 H          1 MOL1         0.0948
      17    C6      19.061199   18.482344   24.504692 C.3        1 MOL1        -0.1500
      18    H12     18.418149   17.785616   25.058449 H          1 MOL1         0.0948
      19    H13     18.385083   19.082111   23.882207 H          1 MOL1         0.0948
      20    C7      19.781285   19.417153   25.504197 C.3        1 MOL1         0.1162
      21    H14     20.433238   20.089373   24.938505 H          1 MOL1         0.0910
      22    C8      20.643569   18.632323   26.508607 C.3        1 MOL1        -0.2491
      23    H15     21.447768   18.086729   26.001436 H          1 MOL1         0.0959
      24    H16     21.115206   19.313072   27.227903 H          1 MOL1         0.0959
      25    H17     20.038970   17.909201   27.070011 H          1 MOL1         0.0959
      26    N1      18.800147   20.293413   26.231930 N.4        1 MOL1        -0.5987
      27    H18     18.149166   19.738329   26.793926 H          1 MOL1         0.3605
      28    H19     18.243501   20.856874   25.582818 H          1 MOL1         0.3605
      29    H20     19.276227   20.940673   26.866808 H          1 MOL1         0.3605
@<TRIPOS>BOND
    1     1     2    1
    2     1     3    1
    3     1     4    1
    4     1     5    1
    5     5     6    1
    6     5     7    1
    7     5     8    1
    8     8     9    1
    9     8    10    1
   10     8    11    1
   11    11    12    1
   12    11    13    1
   13    11    14    1
   14    14    15    1
   15    14    16    1
   16    14    17    1
   17    17    18    1
   18    17    19    1
   19    17    20    1
   20    20    21    1
   21    20    22    1
   22    22    23    1
   23    22    24    1
   24    22    25    1
   25    20    26    1
   26    26    27    1
   27    26    28    1
   28    26    29    1
@<TRIPOS>SUBSTRUCTURE
       1 MOL1            1 RESIDUE      1      MOL     
@<SCITEGIC>MOL_PROPERTY
VM2 Rank
SciTegic.value.IntegerValue
63

@<SCITEGIC>MOL_PROPERTY
Conf_Id
SciTegic.value.IntegerValue
652

@<SCITEGIC>MOL_PROPERTY
Probability
SciTegic.value.DoubleValue
0.28

@<SCITEGIC>MOL_PROPERTY
Sum Probability
SciTegic.value.DoubleValue
96.94

@<SCITEGIC>MOL_PROPERTY
Delta G
SciTegic.value.DoubleValue
2.177

@<SCITEGIC>MOL_PROPERTY
G
SciTegic.value.DoubleValue
35.879

@<SCITEGIC>MOL_PROPERTY
E
SciTegic.value.DoubleValue
-2.424

@<SCITEGIC>MOL_PROPERTY
-TS
SciTegic.value.DoubleValue
38.303

@<SCITEGIC>MOL_PROPERTY
U+W
SciTegic.value.DoubleValue
-26.569

@<SCITEGIC>MOL_PROPERTY
U
SciTegic.value.DoubleValue
26.205

@<SCITEGIC>MOL_PROPERTY
W
SciTegic.value.DoubleValue
-52.774

@<SCITEGIC>MOL_PROPERTY
W(PB)
SciTegic.value.DoubleValue
-55.195

@<SCITEGIC>MOL_PROPERTY
W(SA)
SciTegic.value.DoubleValue
2.421

@<SCITEGIC>MOL_PROPERTY
Valence
SciTegic.value.DoubleValue
4.871

@<SCITEGIC>MOL_PROPERTY
Coulomb
SciTegic.value.DoubleValue
20.549

@<SCITEGIC>MOL_PROPERTY
VdW
SciTegic.value.DoubleValue
0.786

@<SCITEGIC>MOL_PROPERTY
VdW6
SciTegic.value.DoubleValue
-11.159

@<SCITEGIC>MOL_PROPERTY
VdW12
SciTegic.value.DoubleValue
11.945

@<SCITEGIC>MOL_PROPERTY
Bond
SciTegic.value.DoubleValue
0.316

@<SCITEGIC>MOL_PROPERTY
Angle
SciTegic.value.DoubleValue
2.038

@<SCITEGIC>MOL_PROPERTY
Pdih
SciTegic.value.DoubleValue
2.517

@<SCITEGIC>MOL_PROPERTY
Idih
SciTegic.value.DoubleValue
0.000

@<SCITEGIC>MOL_PROPERTY
Tether
SciTegic.value.DoubleValue
0.000

@<TRIPOS>MOLECULE
guest-s15_vm2.mol2 : vm2 ligand conformer 64
          29          28           1
SMALL
USER_CHARGES
 
@<TRIPOS>ATOM
       1    C1      20.168792   18.186139   20.084956 C.3        1 MOL1        -0.2426
       2    H1      19.992458   17.169587   19.710351 H          1 MOL1         0.0959
       3    H2      20.232678   18.857437   19.218818 H          1 MOL1         0.0959
       4    H3      21.140983   18.187539   20.593310 H          1 MOL1         0.0959
       5    C2      19.031254   18.617075   21.037921 C.3        1 MOL1        -0.1410
       6    H4      18.994533   17.939548   21.901421 H          1 MOL1         0.0948
       7    H5      18.070183   18.496013   20.519061 H          1 MOL1         0.0948
       8    C3      19.153474   20.086626   21.514775 C.3        1 MOL1        -0.1435
       9    H6      19.084581   20.749085   20.641056 H          1 MOL1         0.0948
      10    H7      18.284077   20.332191   22.138924 H          1 MOL1         0.0948
      11    C4      20.456084   20.423739   22.289320 C.3        1 MOL1        -0.1435
      12    H8      20.418954   21.477989   22.596170 H          1 MOL1         0.0948
      13    H9      21.313790   20.346045   21.607999 H          1 MOL1         0.0948
      14    C5      20.725983   19.545962   23.538295 C.3        1 MOL1        -0.1435
      15    H10     20.876822   18.505128   23.225964 H          1 MOL1         0.0948
      16    H11     21.673508   19.868656   23.991307 H          1 MOL1         0.0948
      17    C6      19.602597   19.632007   24.603118 C.3        1 MOL1        -0.1500
      18    H12     18.672335   19.207760   24.204527 H          1 MOL1         0.0948
      19    H13     19.399880   20.690690   24.811744 H          1 MOL1         0.0948
      20    C7      19.955469   18.927841   25.932714 C.3        1 MOL1         0.1162
      21    H14     20.905979   19.332357   26.293946 H          1 MOL1         0.0910
      22    C8      20.107460   17.406040   25.758571 C.3        1 MOL1        -0.2491
      23    H15     19.196448   16.961712   25.338655 H          1 MOL1         0.0959
      24    H16     20.945845   17.162201   25.095948 H          1 MOL1         0.0959
      25    H17     20.306825   16.924812   26.723972 H          1 MOL1         0.0959
      26    N1      18.934887   19.230570   26.994330 N.4        1 MOL1        -0.5987
      27    H18     18.848031   20.237918   27.157345 H          1 MOL1         0.3605
      28    H19     19.185632   18.798056   27.888057 H          1 MOL1         0.3605
      29    H20     18.009174   18.879802   26.734176 H          1 MOL1         0.3605
@<TRIPOS>BOND
    1     1     2    1
    2     1     3    1
    3     1     4    1
    4     1     5    1
    5     5     6    1
    6     5     7    1
    7     5     8    1
    8     8     9    1
    9     8    10    1
   10     8    11    1
   11    11    12    1
   12    11    13    1
   13    11    14    1
   14    14    15    1
   15    14    16    1
   16    14    17    1
   17    17    18    1
   18    17    19    1
   19    17    20    1
   20    20    21    1
   21    20    22    1
   22    22    23    1
   23    22    24    1
   24    22    25    1
   25    20    26    1
   26    26    27    1
   27    26    28    1
   28    26    29    1
@<TRIPOS>SUBSTRUCTURE
       1 MOL1            1 RESIDUE      1      MOL     
@<SCITEGIC>MOL_PROPERTY
VM2 Rank
SciTegic.value.IntegerValue
64

@<SCITEGIC>MOL_PROPERTY
Conf_Id
SciTegic.value.IntegerValue
69

@<SCITEGIC>MOL_PROPERTY
Probability
SciTegic.value.DoubleValue
0.27

@<SCITEGIC>MOL_PROPERTY
Sum Probability
SciTegic.value.DoubleValue
97.21

@<SCITEGIC>MOL_PROPERTY
Delta G
SciTegic.value.DoubleValue
2.186

@<SCITEGIC>MOL_PROPERTY
G
SciTegic.value.DoubleValue
35.888

@<SCITEGIC>MOL_PROPERTY
E
SciTegic.value.DoubleValue
-2.307

@<SCITEGIC>MOL_PROPERTY
-TS
SciTegic.value.DoubleValue
38.195

@<SCITEGIC>MOL_PROPERTY
U+W
SciTegic.value.DoubleValue
-26.452

@<SCITEGIC>MOL_PROPERTY
U
SciTegic.value.DoubleValue
26.061

@<SCITEGIC>MOL_PROPERTY
W
SciTegic.value.DoubleValue
-52.512

@<SCITEGIC>MOL_PROPERTY
W(PB)
SciTegic.value.DoubleValue
-54.928

@<SCITEGIC>MOL_PROPERTY
W(SA)
SciTegic.value.DoubleValue
2.416

@<SCITEGIC>MOL_PROPERTY
Valence
SciTegic.value.DoubleValue
5.062

@<SCITEGIC>MOL_PROPERTY
Coulomb
SciTegic.value.DoubleValue
19.918

@<SCITEGIC>MOL_PROPERTY
VdW
SciTegic.value.DoubleValue
1.081

@<SCITEGIC>MOL_PROPERTY
VdW6
SciTegic.value.DoubleValue
-10.857

@<SCITEGIC>MOL_PROPERTY
VdW12
SciTegic.value.DoubleValue
11.938

@<SCITEGIC>MOL_PROPERTY
Bond
SciTegic.value.DoubleValue
0.323

@<SCITEGIC>MOL_PROPERTY
Angle
SciTegic.value.DoubleValue
2.057

@<SCITEGIC>MOL_PROPERTY
Pdih
SciTegic.value.DoubleValue
2.682

@<SCITEGIC>MOL_PROPERTY
Idih
SciTegic.value.DoubleValue
0.000

@<SCITEGIC>MOL_PROPERTY
Tether
SciTegic.value.DoubleValue
0.000

@<TRIPOS>MOLECULE
guest-s15_vm2.mol2 : vm2 ligand conformer 65
          29          28           1
SMALL
USER_CHARGES
 
@<TRIPOS>ATOM
       1    C1      18.908169   19.831270   19.930282 C.3        1 MOL1        -0.2426
       2    H1      19.389550   20.779496   19.658108 H          1 MOL1         0.0959
       3    H2      18.305886   19.501727   19.073843 H          1 MOL1         0.0959
       4    H3      18.220782   20.020791   20.764137 H          1 MOL1         0.0959
       5    C2      19.959824   18.759973   20.296760 C.3        1 MOL1        -0.1410
       6    H4      20.545157   18.517660   19.398820 H          1 MOL1         0.0948
       7    H5      19.455206   17.828334   20.585252 H          1 MOL1         0.0948
       8    C3      20.935691   19.210255   21.413738 C.3        1 MOL1        -0.1435
       9    H6      21.660860   18.405201   21.595694 H          1 MOL1         0.0948
      10    H7      21.521406   20.064662   21.047624 H          1 MOL1         0.0948
      11    C4      20.272622   19.604539   22.758887 C.3        1 MOL1        -0.1435
      12    H8      19.621969   20.477005   22.613948 H          1 MOL1         0.0948
      13    H9      21.067798   19.930249   23.442031 H          1 MOL1         0.0948
      14    C5      19.468179   18.453002   23.413269 C.3        1 MOL1        -0.1435
      15    H10     18.660043   18.142106   22.738675 H          1 MOL1         0.0948
      16    H11     20.112419   17.573080   23.539740 H          1 MOL1         0.0948
      17    C6      18.830085   18.847395   24.770513 C.3        1 MOL1        -0.1500
      18    H12     18.255998   17.993987   25.155048 H          1 MOL1         0.0948
      19    H13     18.100667   19.648031   24.590222 H          1 MOL1         0.0948
      20    C7      19.826377   19.320038   25.855600 C.3        1 MOL1         0.1162
      21    H14     20.382032   20.177658   25.465394 H          1 MOL1         0.0910
      22    C8      20.832861   18.219812   26.236295 C.3        1 MOL1        -0.2491
      23    H15     21.494774   18.562909   27.040921 H          1 MOL1         0.0959
      24    H16     20.318816   17.313953   26.580980 H          1 MOL1         0.0959
      25    H17     21.469190   17.951482   25.384929 H          1 MOL1         0.0959
      26    N1      19.102193   19.809715   27.078657 N.4        1 MOL1        -0.5987
      27    H18     19.755514   20.160812   27.784759 H          1 MOL1         0.3605
      28    H19     18.555343   19.061804   27.513752 H          1 MOL1         0.3605
      29    H20     18.456703   20.572599   26.854581 H          1 MOL1         0.3605
@<TRIPOS>BOND
    1     1     2    1
    2     1     3    1
    3     1     4    1
    4     1     5    1
    5     5     6    1
    6     5     7    1
    7     5     8    1
    8     8     9    1
    9     8    10    1
   10     8    11    1
   11    11    12    1
   12    11    13    1
   13    11    14    1
   14    14    15    1
   15    14    16    1
   16    14    17    1
   17    17    18    1
   18    17    19    1
   19    17    20    1
   20    20    21    1
   21    20    22    1
   22    22    23    1
   23    22    24    1
   24    22    25    1
   25    20    26    1
   26    26    27    1
   27    26    28    1
   28    26    29    1
@<TRIPOS>SUBSTRUCTURE
       1 MOL1            1 RESIDUE      1      MOL     
@<SCITEGIC>MOL_PROPERTY
VM2 Rank
SciTegic.value.IntegerValue
65

@<SCITEGIC>MOL_PROPERTY
Conf_Id
SciTegic.value.IntegerValue
1350

@<SCITEGIC>MOL_PROPERTY
Probability
SciTegic.value.DoubleValue
0.25

@<SCITEGIC>MOL_PROPERTY
Sum Probability
SciTegic.value.DoubleValue
97.46

@<SCITEGIC>MOL_PROPERTY
Delta G
SciTegic.value.DoubleValue
2.233

@<SCITEGIC>MOL_PROPERTY
G
SciTegic.value.DoubleValue
35.935

@<SCITEGIC>MOL_PROPERTY
E
SciTegic.value.DoubleValue
-2.151

@<SCITEGIC>MOL_PROPERTY
-TS
SciTegic.value.DoubleValue
38.086

@<SCITEGIC>MOL_PROPERTY
U+W
SciTegic.value.DoubleValue
-26.296

@<SCITEGIC>MOL_PROPERTY
U
SciTegic.value.DoubleValue
26.049

@<SCITEGIC>MOL_PROPERTY
W
SciTegic.value.DoubleValue
-52.345

@<SCITEGIC>MOL_PROPERTY
W(PB)
SciTegic.value.DoubleValue
-54.782

@<SCITEGIC>MOL_PROPERTY
W(SA)
SciTegic.value.DoubleValue
2.438

@<SCITEGIC>MOL_PROPERTY
Valence
SciTegic.value.DoubleValue
4.964

@<SCITEGIC>MOL_PROPERTY
Coulomb
SciTegic.value.DoubleValue
19.934

@<SCITEGIC>MOL_PROPERTY
VdW
SciTegic.value.DoubleValue
1.151

@<SCITEGIC>MOL_PROPERTY
VdW6
SciTegic.value.DoubleValue
-10.616

@<SCITEGIC>MOL_PROPERTY
VdW12
SciTegic.value.DoubleValue
11.766

@<SCITEGIC>MOL_PROPERTY
Bond
SciTegic.value.DoubleValue
0.316

@<SCITEGIC>MOL_PROPERTY
Angle
SciTegic.value.DoubleValue
2.146

@<SCITEGIC>MOL_PROPERTY
Pdih
SciTegic.value.DoubleValue
2.502

@<SCITEGIC>MOL_PROPERTY
Idih
SciTegic.value.DoubleValue
0.000

@<SCITEGIC>MOL_PROPERTY
Tether
SciTegic.value.DoubleValue
0.000

@<TRIPOS>MOLECULE
guest-s15_vm2.mol2 : vm2 ligand conformer 66
          29          28           1
SMALL
USER_CHARGES
 
@<TRIPOS>ATOM
       1    C1      18.969346   18.328653   20.194736 C.3        1 MOL1        -0.2426
       2    H1      18.102722   18.513151   20.841655 H          1 MOL1         0.0959
       3    H2      18.919098   19.023260   19.346261 H          1 MOL1         0.0959
       4    H3      18.876983   17.308530   19.800257 H          1 MOL1         0.0959
       5    C2      20.297450   18.492343   20.967515 C.3        1 MOL1        -0.1410
       6    H4      21.127336   18.194194   20.311830 H          1 MOL1         0.0948
       7    H5      20.320204   17.796735   21.817005 H          1 MOL1         0.0948
       8    C3      20.549235   19.941744   21.455069 C.3        1 MOL1        -0.1435
       9    H6      21.532066   19.988425   21.942341 H          1 MOL1         0.0948
      10    H7      20.624179   20.601415   20.579743 H          1 MOL1         0.0948
      11    C4      19.469937   20.513557   22.413580 C.3        1 MOL1        -0.1435
      12    H8      18.526916   20.636073   21.864379 H          1 MOL1         0.0948
      13    H9      19.768925   21.527119   22.714001 H          1 MOL1         0.0948
      14    C5      19.202090   19.670700   23.686936 C.3        1 MOL1        -0.1435
      15    H10     18.408777   20.166203   24.261443 H          1 MOL1         0.0948
      16    H11     18.801522   18.691046   23.397893 H          1 MOL1         0.0948
      17    C6      20.458805   19.495368   24.582192 C.3        1 MOL1        -0.1500
      18    H12     20.889463   20.482186   24.796364 H          1 MOL1         0.0948
      19    H13     21.229464   18.940698   24.032523 H          1 MOL1         0.0948
      20    C7      20.203832   18.769019   25.923762 C.3        1 MOL1         0.1162
      21    H14     21.157771   18.730200   26.458773 H          1 MOL1         0.0910
      22    C8      19.728216   17.320777   25.714480 C.3        1 MOL1        -0.2491
      23    H15     19.685782   16.788862   26.672833 H          1 MOL1         0.0959
      24    H16     18.728297   17.283087   25.266140 H          1 MOL1         0.0959
      25    H17     20.419236   16.774070   25.060888 H          1 MOL1         0.0959
      26    N1      19.257088   19.523839   26.815732 N.4        1 MOL1        -0.5987
      27    H18     19.148855   19.061367   27.722926 H          1 MOL1         0.3605
      28    H19     18.327649   19.595257   26.394470 H          1 MOL1         0.3605
      29    H20     19.588983   20.475917   26.994798 H          1 MOL1         0.3605
@<TRIPOS>BOND
    1     1     2    1
    2     1     3    1
    3     1     4    1
    4     1     5    1
    5     5     6    1
    6     5     7    1
    7     5     8    1
    8     8     9    1
    9     8    10    1
   10     8    11    1
   11    11    12    1
   12    11    13    1
   13    11    14    1
   14    14    15    1
   15    14    16    1
   16    14    17    1
   17    17    18    1
   18    17    19    1
   19    17    20    1
   20    20    21    1
   21    20    22    1
   22    22    23    1
   23    22    24    1
   24    22    25    1
   25    20    26    1
   26    26    27    1
   27    26    28    1
   28    26    29    1
@<TRIPOS>SUBSTRUCTURE
       1 MOL1            1 RESIDUE      1      MOL     
@<SCITEGIC>MOL_PROPERTY
VM2 Rank
SciTegic.value.IntegerValue
66

@<SCITEGIC>MOL_PROPERTY
Conf_Id
SciTegic.value.IntegerValue
1195

@<SCITEGIC>MOL_PROPERTY
Probability
SciTegic.value.DoubleValue
0.23

@<SCITEGIC>MOL_PROPERTY
Sum Probability
SciTegic.value.DoubleValue
97.69

@<SCITEGIC>MOL_PROPERTY
Delta G
SciTegic.value.DoubleValue
2.284

@<SCITEGIC>MOL_PROPERTY
G
SciTegic.value.DoubleValue
35.986

@<SCITEGIC>MOL_PROPERTY
E
SciTegic.value.DoubleValue
-2.344

@<SCITEGIC>MOL_PROPERTY
-TS
SciTegic.value.DoubleValue
38.330

@<SCITEGIC>MOL_PROPERTY
U+W
SciTegic.value.DoubleValue
-26.489

@<SCITEGIC>MOL_PROPERTY
U
SciTegic.value.DoubleValue
26.082

@<SCITEGIC>MOL_PROPERTY
W
SciTegic.value.DoubleValue
-52.571

@<SCITEGIC>MOL_PROPERTY
W(PB)
SciTegic.value.DoubleValue
-54.967

@<SCITEGIC>MOL_PROPERTY
W(SA)
SciTegic.value.DoubleValue
2.396

@<SCITEGIC>MOL_PROPERTY
Valence
SciTegic.value.DoubleValue
5.054

@<SCITEGIC>MOL_PROPERTY
Coulomb
SciTegic.value.DoubleValue
19.931

@<SCITEGIC>MOL_PROPERTY
VdW
SciTegic.value.DoubleValue
1.097

@<SCITEGIC>MOL_PROPERTY
VdW6
SciTegic.value.DoubleValue
-11.342

@<SCITEGIC>MOL_PROPERTY
VdW12
SciTegic.value.DoubleValue
12.439

@<SCITEGIC>MOL_PROPERTY
Bond
SciTegic.value.DoubleValue
0.355

@<SCITEGIC>MOL_PROPERTY
Angle
SciTegic.value.DoubleValue
2.147

@<SCITEGIC>MOL_PROPERTY
Pdih
SciTegic.value.DoubleValue
2.552

@<SCITEGIC>MOL_PROPERTY
Idih
SciTegic.value.DoubleValue
0.000

@<SCITEGIC>MOL_PROPERTY
Tether
SciTegic.value.DoubleValue
0.000

@<TRIPOS>MOLECULE
guest-s15_vm2.mol2 : vm2 ligand conformer 67
          29          28           1
SMALL
USER_CHARGES
 
@<TRIPOS>ATOM
       1    C1      20.501323   20.129917   20.075093 C.3        1 MOL1        -0.2426
       2    H1      21.406449   19.802157   20.601332 H          1 MOL1         0.0959
       3    H2      20.376520   19.503084   19.182665 H          1 MOL1         0.0959
       4    H3      20.668014   21.161968   19.740603 H          1 MOL1         0.0959
       5    C2      19.256391   20.050491   20.987104 C.3        1 MOL1        -0.1410
       6    H4      18.399636   20.486809   20.455001 H          1 MOL1         0.0948
       7    H5      19.408030   20.675697   21.877116 H          1 MOL1         0.0948
       8    C3      18.893406   18.603041   21.404989 C.3        1 MOL1        -0.1435
       9    H6      17.970419   18.623573   21.999154 H          1 MOL1         0.0948
      10    H7      18.647514   18.026037   20.502987 H          1 MOL1         0.0948
      11    C4      19.998009   17.844720   22.189677 C.3        1 MOL1        -0.1435
      12    H8      20.850707   17.660108   21.522736 H          1 MOL1         0.0948
      13    H9      19.616405   16.850699   22.460390 H          1 MOL1         0.0948
      14    C5      20.511004   18.551225   23.471414 C.3        1 MOL1        -0.1435
      15    H10     21.307967   17.929172   23.898130 H          1 MOL1         0.0948
      16    H11     20.980819   19.508330   23.209187 H          1 MOL1         0.0948
      17    C6      19.406250   18.782923   24.534723 C.3        1 MOL1        -0.1500
      18    H12     18.952902   17.822543   24.813541 H          1 MOL1         0.0948
      19    H13     18.606674   19.388591   24.091241 H          1 MOL1         0.0948
      20    C7      19.906498   19.510680   25.803604 C.3        1 MOL1         0.1162
      21    H14     20.405304   20.434670   25.495319 H          1 MOL1         0.0910
      22    C8      20.906886   18.660537   26.607431 C.3        1 MOL1        -0.2491
      23    H15     20.473149   17.690751   26.881456 H          1 MOL1         0.0959
      24    H16     21.825283   18.478272   26.037906 H          1 MOL1         0.0959
      25    H17     21.196824   19.176241   27.531194 H          1 MOL1         0.0959
      26    N1      18.756233   19.922467   26.679965 N.4        1 MOL1        -0.5987
      27    H18     18.232848   19.109524   27.016064 H          1 MOL1         0.3605
      28    H19     18.098322   20.527187   26.179695 H          1 MOL1         0.3605
      29    H20     19.079556   20.439222   27.502844 H          1 MOL1         0.3605
@<TRIPOS>BOND
    1     1     2    1
    2     1     3    1
    3     1     4    1
    4     1     5    1
    5     5     6    1
    6     5     7    1
    7     5     8    1
    8     8     9    1
    9     8    10    1
   10     8    11    1
   11    11    12    1
   12    11    13    1
   13    11    14    1
   14    14    15    1
   15    14    16    1
   16    14    17    1
   17    17    18    1
   18    17    19    1
   19    17    20    1
   20    20    21    1
   21    20    22    1
   22    22    23    1
   23    22    24    1
   24    22    25    1
   25    20    26    1
   26    26    27    1
   27    26    28    1
   28    26    29    1
@<TRIPOS>SUBSTRUCTURE
       1 MOL1            1 RESIDUE      1      MOL     
@<SCITEGIC>MOL_PROPERTY
VM2 Rank
SciTegic.value.IntegerValue
67

@<SCITEGIC>MOL_PROPERTY
Conf_Id
SciTegic.value.IntegerValue
186

@<SCITEGIC>MOL_PROPERTY
Probability
SciTegic.value.DoubleValue
0.20

@<SCITEGIC>MOL_PROPERTY
Sum Probability
SciTegic.value.DoubleValue
97.89

@<SCITEGIC>MOL_PROPERTY
Delta G
SciTegic.value.DoubleValue
2.385

@<SCITEGIC>MOL_PROPERTY
G
SciTegic.value.DoubleValue
36.087

@<SCITEGIC>MOL_PROPERTY
E
SciTegic.value.DoubleValue
-2.051

@<SCITEGIC>MOL_PROPERTY
-TS
SciTegic.value.DoubleValue
38.138

@<SCITEGIC>MOL_PROPERTY
U+W
SciTegic.value.DoubleValue
-26.195

@<SCITEGIC>MOL_PROPERTY
U
SciTegic.value.DoubleValue
26.466

@<SCITEGIC>MOL_PROPERTY
W
SciTegic.value.DoubleValue
-52.661

@<SCITEGIC>MOL_PROPERTY
W(PB)
SciTegic.value.DoubleValue
-55.092

@<SCITEGIC>MOL_PROPERTY
W(SA)
SciTegic.value.DoubleValue
2.430

@<SCITEGIC>MOL_PROPERTY
Valence
SciTegic.value.DoubleValue
5.199

@<SCITEGIC>MOL_PROPERTY
Coulomb
SciTegic.value.DoubleValue
20.030

@<SCITEGIC>MOL_PROPERTY
VdW
SciTegic.value.DoubleValue
1.237

@<SCITEGIC>MOL_PROPERTY
VdW6
SciTegic.value.DoubleValue
-10.692

@<SCITEGIC>MOL_PROPERTY
VdW12
SciTegic.value.DoubleValue
11.929

@<SCITEGIC>MOL_PROPERTY
Bond
SciTegic.value.DoubleValue
0.334

@<SCITEGIC>MOL_PROPERTY
Angle
SciTegic.value.DoubleValue
2.222

@<SCITEGIC>MOL_PROPERTY
Pdih
SciTegic.value.DoubleValue
2.643

@<SCITEGIC>MOL_PROPERTY
Idih
SciTegic.value.DoubleValue
0.000

@<SCITEGIC>MOL_PROPERTY
Tether
SciTegic.value.DoubleValue
0.000

@<TRIPOS>MOLECULE
guest-s15_vm2.mol2 : vm2 ligand conformer 68
          29          28           1
SMALL
USER_CHARGES
 
@<TRIPOS>ATOM
       1    C1      19.366614   19.196393   19.787955 C.3        1 MOL1        -0.2426
       2    H1      19.223547   18.455432   18.990889 H          1 MOL1         0.0959
       3    H2      18.378331   19.431493   20.202209 H          1 MOL1         0.0959
       4    H3      19.773874   20.107576   19.331008 H          1 MOL1         0.0959
       5    C2      20.318943   18.646697   20.873642 C.3        1 MOL1        -0.1410
       6    H4      21.252417   18.321727   20.393486 H          1 MOL1         0.0948
       7    H5      19.883342   17.745929   21.326018 H          1 MOL1         0.0948
       8    C3      20.663755   19.685074   21.971190 C.3        1 MOL1        -0.1435
       9    H6      21.389752   19.241836   22.665509 H          1 MOL1         0.0948
      10    H7      21.182691   20.533549   21.504540 H          1 MOL1         0.0948
      11    C4      19.448622   20.227316   22.770603 C.3        1 MOL1        -0.1435
      12    H8      18.800209   20.803464   22.097293 H          1 MOL1         0.0948
      13    H9      19.811024   20.952294   23.511326 H          1 MOL1         0.0948
      14    C5      18.593644   19.145161   23.483119 C.3        1 MOL1        -0.1435
      15    H10     17.773191   19.639812   24.019789 H          1 MOL1         0.0948
      16    H11     18.106460   18.511539   22.730156 H          1 MOL1         0.0948
      17    C6      19.380846   18.239970   24.467689 C.3        1 MOL1        -0.1500
      18    H12     20.088167   17.621425   23.900665 H          1 MOL1         0.0948
      19    H13     18.682818   17.538844   24.943949 H          1 MOL1         0.0948
      20    C7      20.150023   19.016354   25.559107 C.3        1 MOL1         0.1162
      21    H14     20.839538   19.708816   25.067166 H          1 MOL1         0.0910
      22    C8      20.975344   18.050024   26.423061 C.3        1 MOL1        -0.2491
      23    H15     21.685186   17.485221   25.805932 H          1 MOL1         0.0959
      24    H16     21.553094   18.599668   27.176359 H          1 MOL1         0.0959
      25    H17     20.329144   17.332541   26.944157 H          1 MOL1         0.0959
      26    N1      19.238209   19.849011   26.417634 N.4        1 MOL1        -0.5987
      27    H18     18.707145   20.518084   25.853658 H          1 MOL1         0.3605
      28    H19     19.763931   20.382293   27.116005 H          1 MOL1         0.3605
      29    H20     18.564222   19.265256   26.919984 H          1 MOL1         0.3605
@<TRIPOS>BOND
    1     1     2    1
    2     1     3    1
    3     1     4    1
    4     1     5    1
    5     5     6    1
    6     5     7    1
    7     5     8    1
    8     8     9    1
    9     8    10    1
   10     8    11    1
   11    11    12    1
   12    11    13    1
   13    11    14    1
   14    14    15    1
   15    14    16    1
   16    14    17    1
   17    17    18    1
   18    17    19    1
   19    17    20    1
   20    20    21    1
   21    20    22    1
   22    22    23    1
   23    22    24    1
   24    22    25    1
   25    20    26    1
   26    26    27    1
   27    26    28    1
   28    26    29    1
@<TRIPOS>SUBSTRUCTURE
       1 MOL1            1 RESIDUE      1      MOL     
@<SCITEGIC>MOL_PROPERTY
VM2 Rank
SciTegic.value.IntegerValue
68

@<SCITEGIC>MOL_PROPERTY
Conf_Id
SciTegic.value.IntegerValue
181

@<SCITEGIC>MOL_PROPERTY
Probability
SciTegic.value.DoubleValue
0.18

@<SCITEGIC>MOL_PROPERTY
Sum Probability
SciTegic.value.DoubleValue
98.07

@<SCITEGIC>MOL_PROPERTY
Delta G
SciTegic.value.DoubleValue
2.439

@<SCITEGIC>MOL_PROPERTY
G
SciTegic.value.DoubleValue
36.140

@<SCITEGIC>MOL_PROPERTY
E
SciTegic.value.DoubleValue
-2.350

@<SCITEGIC>MOL_PROPERTY
-TS
SciTegic.value.DoubleValue
38.491

@<SCITEGIC>MOL_PROPERTY
U+W
SciTegic.value.DoubleValue
-26.495

@<SCITEGIC>MOL_PROPERTY
U
SciTegic.value.DoubleValue
25.928

@<SCITEGIC>MOL_PROPERTY
W
SciTegic.value.DoubleValue
-52.422

@<SCITEGIC>MOL_PROPERTY
W(PB)
SciTegic.value.DoubleValue
-54.827

@<SCITEGIC>MOL_PROPERTY
W(SA)
SciTegic.value.DoubleValue
2.405

@<SCITEGIC>MOL_PROPERTY
Valence
SciTegic.value.DoubleValue
4.806

@<SCITEGIC>MOL_PROPERTY
Coulomb
SciTegic.value.DoubleValue
20.407

@<SCITEGIC>MOL_PROPERTY
VdW
SciTegic.value.DoubleValue
0.715

@<SCITEGIC>MOL_PROPERTY
VdW6
SciTegic.value.DoubleValue
-11.781

@<SCITEGIC>MOL_PROPERTY
VdW12
SciTegic.value.DoubleValue
12.496

@<SCITEGIC>MOL_PROPERTY
Bond
SciTegic.value.DoubleValue
0.347

@<SCITEGIC>MOL_PROPERTY
Angle
SciTegic.value.DoubleValue
2.053

@<SCITEGIC>MOL_PROPERTY
Pdih
SciTegic.value.DoubleValue
2.406

@<SCITEGIC>MOL_PROPERTY
Idih
SciTegic.value.DoubleValue
0.000

@<SCITEGIC>MOL_PROPERTY
Tether
SciTegic.value.DoubleValue
0.000

@<TRIPOS>MOLECULE
guest-s15_vm2.mol2 : vm2 ligand conformer 69
          29          28           1
SMALL
USER_CHARGES
 
@<TRIPOS>ATOM
       1    C1      19.203841   20.870216   20.911443 C.3        1 MOL1        -0.2426
       2    H1      19.132873   21.035066   21.993220 H          1 MOL1         0.0959
       3    H2      20.118273   21.357087   20.548455 H          1 MOL1         0.0959
       4    H3      18.347351   21.372539   20.443497 H          1 MOL1         0.0959
       5    C2      19.202894   19.364047   20.565534 C.3        1 MOL1        -0.1410
       6    H4      19.158795   19.252957   19.473130 H          1 MOL1         0.0948
       7    H5      18.288078   18.894918   20.951417 H          1 MOL1         0.0948
       8    C3      20.453435   18.611071   21.086673 C.3        1 MOL1        -0.1435
       9    H6      20.395182   17.562247   20.764670 H          1 MOL1         0.0948
      10    H7      21.346124   19.025867   20.598655 H          1 MOL1         0.0948
      11    C4      20.659933   18.656317   22.622399 C.3        1 MOL1        -0.1435
      12    H8      20.825590   19.693443   22.940080 H          1 MOL1         0.0948
      13    H9      21.585434   18.114984   22.862207 H          1 MOL1         0.0948
      14    C5      19.489063   18.028078   23.419336 C.3        1 MOL1        -0.1435
      15    H10     18.568102   18.601639   23.255660 H          1 MOL1         0.0948
      16    H11     19.292713   17.018722   23.032428 H          1 MOL1         0.0948
      17    C6      19.775401   17.926190   24.939236 C.3        1 MOL1        -0.1500
      18    H12     20.639822   17.266497   25.092604 H          1 MOL1         0.0948
      19    H13     18.925036   17.436587   25.432198 H          1 MOL1         0.0948
      20    C7      20.050247   19.284349   25.622702 C.3        1 MOL1         0.1162
      21    H14     20.907693   19.751414   25.129361 H          1 MOL1         0.0910
      22    C8      20.404445   19.076343   27.103534 C.3        1 MOL1        -0.2491
      23    H15     19.573035   18.613163   27.649548 H          1 MOL1         0.0959
      24    H16     21.283876   18.428447   27.206348 H          1 MOL1         0.0959
      25    H17     20.638331   20.033883   27.584986 H          1 MOL1         0.0959
      26    N1      18.896740   20.239388   25.483144 N.4        1 MOL1        -0.5987
      27    H18     18.054234   19.872930   25.934315 H          1 MOL1         0.3605
      28    H19     18.672496   20.407917   24.498859 H          1 MOL1         0.3605
      29    H20     19.106171   21.145013   25.912964 H          1 MOL1         0.3605
@<TRIPOS>BOND
    1     1     2    1
    2     1     3    1
    3     1     4    1
    4     1     5    1
    5     5     6    1
    6     5     7    1
    7     5     8    1
    8     8     9    1
    9     8    10    1
   10     8    11    1
   11    11    12    1
   12    11    13    1
   13    11    14    1
   14    14    15    1
   15    14    16    1
   16    14    17    1
   17    17    18    1
   18    17    19    1
   19    17    20    1
   20    20    21    1
   21    20    22    1
   22    22    23    1
   23    22    24    1
   24    22    25    1
   25    20    26    1
   26    26    27    1
   27    26    28    1
   28    26    29    1
@<TRIPOS>SUBSTRUCTURE
       1 MOL1            1 RESIDUE      1      MOL     
@<SCITEGIC>MOL_PROPERTY
VM2 Rank
SciTegic.value.IntegerValue
69

@<SCITEGIC>MOL_PROPERTY
Conf_Id
SciTegic.value.IntegerValue
1348

@<SCITEGIC>MOL_PROPERTY
Probability
SciTegic.value.DoubleValue
0.17

@<SCITEGIC>MOL_PROPERTY
Sum Probability
SciTegic.value.DoubleValue
98.24

@<SCITEGIC>MOL_PROPERTY
Delta G
SciTegic.value.DoubleValue
2.462

@<SCITEGIC>MOL_PROPERTY
G
SciTegic.value.DoubleValue
36.164

@<SCITEGIC>MOL_PROPERTY
E
SciTegic.value.DoubleValue
-1.828

@<SCITEGIC>MOL_PROPERTY
-TS
SciTegic.value.DoubleValue
37.992

@<SCITEGIC>MOL_PROPERTY
U+W
SciTegic.value.DoubleValue
-25.973

@<SCITEGIC>MOL_PROPERTY
U
SciTegic.value.DoubleValue
26.280

@<SCITEGIC>MOL_PROPERTY
W
SciTegic.value.DoubleValue
-52.253

@<SCITEGIC>MOL_PROPERTY
W(PB)
SciTegic.value.DoubleValue
-54.677

@<SCITEGIC>MOL_PROPERTY
W(SA)
SciTegic.value.DoubleValue
2.424

@<SCITEGIC>MOL_PROPERTY
Valence
SciTegic.value.DoubleValue
4.387

@<SCITEGIC>MOL_PROPERTY
Coulomb
SciTegic.value.DoubleValue
21.061

@<SCITEGIC>MOL_PROPERTY
VdW
SciTegic.value.DoubleValue
0.832

@<SCITEGIC>MOL_PROPERTY
VdW6
SciTegic.value.DoubleValue
-10.644

@<SCITEGIC>MOL_PROPERTY
VdW12
SciTegic.value.DoubleValue
11.476

@<SCITEGIC>MOL_PROPERTY
Bond
SciTegic.value.DoubleValue
0.296

@<SCITEGIC>MOL_PROPERTY
Angle
SciTegic.value.DoubleValue
1.681

@<SCITEGIC>MOL_PROPERTY
Pdih
SciTegic.value.DoubleValue
2.411

@<SCITEGIC>MOL_PROPERTY
Idih
SciTegic.value.DoubleValue
0.000

@<SCITEGIC>MOL_PROPERTY
Tether
SciTegic.value.DoubleValue
0.000

@<TRIPOS>MOLECULE
guest-s15_vm2.mol2 : vm2 ligand conformer 70
          29          28           1
SMALL
USER_CHARGES
 
@<TRIPOS>ATOM
       1    C1      19.310345   19.982286   19.002550 C.3        1 MOL1        -0.2426
       2    H1      18.468607   19.910233   18.301600 H          1 MOL1         0.0959
       3    H2      19.569002   21.043714   19.110801 H          1 MOL1         0.0959
       4    H3      20.168338   19.465292   18.553306 H          1 MOL1         0.0959
       5    C2      18.939403   19.360110   20.365308 C.3        1 MOL1        -0.1410
       6    H4      18.653300   18.308908   20.220304 H          1 MOL1         0.0948
       7    H5      18.058447   19.875220   20.773264 H          1 MOL1         0.0948
       8    C3      20.108327   19.448436   21.371278 C.3        1 MOL1        -0.1435
       9    H6      20.986963   18.934987   20.956783 H          1 MOL1         0.0948
      10    H7      20.392088   20.500716   21.511339 H          1 MOL1         0.0948
      11    C4      19.741428   18.825726   22.737179 C.3        1 MOL1        -0.1435
      12    H8      19.462936   17.772613   22.592853 H          1 MOL1         0.0948
      13    H9      18.855577   19.334375   23.132669 H          1 MOL1         0.0948
      14    C5      20.918599   18.913654   23.739746 C.3        1 MOL1        -0.1435
      15    H10     21.786731   18.413175   23.288671 H          1 MOL1         0.0948
      16    H11     21.216995   19.960561   23.889658 H          1 MOL1         0.0948
      17    C6      20.634214   18.242667   25.109564 C.3        1 MOL1        -0.1500
      18    H12     21.596254   17.910613   25.522291 H          1 MOL1         0.0948
      19    H13     20.036104   17.332132   24.971968 H          1 MOL1         0.0948
      20    C7      19.971010   19.170680   26.154320 C.3        1 MOL1         0.1162
      21    H14     20.591463   20.066311   26.256511 H          1 MOL1         0.0910
      22    C8      19.910563   18.471352   27.521954 C.3        1 MOL1        -0.2491
      23    H15     19.297699   17.562369   27.476013 H          1 MOL1         0.0959
      24    H16     20.915085   18.189356   27.861307 H          1 MOL1         0.0959
      25    H17     19.478906   19.136684   28.279874 H          1 MOL1         0.0959
      26    N1      18.602111   19.641088   25.752102 N.4        1 MOL1        -0.5987
      27    H18     18.195486   20.257767   26.461358 H          1 MOL1         0.3605
      28    H19     17.960826   18.853920   25.623560 H          1 MOL1         0.3605
      29    H20     18.635952   20.163720   24.872997 H          1 MOL1         0.3605
@<TRIPOS>BOND
    1     1     2    1
    2     1     3    1
    3     1     4    1
    4     1     5    1
    5     5     6    1
    6     5     7    1
    7     5     8    1
    8     8     9    1
    9     8    10    1
   10     8    11    1
   11    11    12    1
   12    11    13    1
   13    11    14    1
   14    14    15    1
   15    14    16    1
   16    14    17    1
   17    17    18    1
   18    17    19    1
   19    17    20    1
   20    20    21    1
   21    20    22    1
   22    22    23    1
   23    22    24    1
   24    22    25    1
   25    20    26    1
   26    26    27    1
   27    26    28    1
   28    26    29    1
@<TRIPOS>SUBSTRUCTURE
       1 MOL1            1 RESIDUE      1      MOL     
@<SCITEGIC>MOL_PROPERTY
VM2 Rank
SciTegic.value.IntegerValue
70

@<SCITEGIC>MOL_PROPERTY
Conf_Id
SciTegic.value.IntegerValue
566

@<SCITEGIC>MOL_PROPERTY
Probability
SciTegic.value.DoubleValue
0.13

@<SCITEGIC>MOL_PROPERTY
Sum Probability
SciTegic.value.DoubleValue
98.37

@<SCITEGIC>MOL_PROPERTY
Delta G
SciTegic.value.DoubleValue
2.611

@<SCITEGIC>MOL_PROPERTY
G
SciTegic.value.DoubleValue
36.313

@<SCITEGIC>MOL_PROPERTY
E
SciTegic.value.DoubleValue
-0.879

@<SCITEGIC>MOL_PROPERTY
-TS
SciTegic.value.DoubleValue
37.192

@<SCITEGIC>MOL_PROPERTY
U+W
SciTegic.value.DoubleValue
-25.023

@<SCITEGIC>MOL_PROPERTY
U
SciTegic.value.DoubleValue
27.084

@<SCITEGIC>MOL_PROPERTY
W
SciTegic.value.DoubleValue
-52.107

@<SCITEGIC>MOL_PROPERTY
W(PB)
SciTegic.value.DoubleValue
-54.624

@<SCITEGIC>MOL_PROPERTY
W(SA)
SciTegic.value.DoubleValue
2.517

@<SCITEGIC>MOL_PROPERTY
Valence
SciTegic.value.DoubleValue
5.156

@<SCITEGIC>MOL_PROPERTY
Coulomb
SciTegic.value.DoubleValue
20.851

@<SCITEGIC>MOL_PROPERTY
VdW
SciTegic.value.DoubleValue
1.077

@<SCITEGIC>MOL_PROPERTY
VdW6
SciTegic.value.DoubleValue
-8.818

@<SCITEGIC>MOL_PROPERTY
VdW12
SciTegic.value.DoubleValue
9.895

@<SCITEGIC>MOL_PROPERTY
Bond
SciTegic.value.DoubleValue
0.258

@<SCITEGIC>MOL_PROPERTY
Angle
SciTegic.value.DoubleValue
1.437

@<SCITEGIC>MOL_PROPERTY
Pdih
SciTegic.value.DoubleValue
3.462

@<SCITEGIC>MOL_PROPERTY
Idih
SciTegic.value.DoubleValue
0.000

@<SCITEGIC>MOL_PROPERTY
Tether
SciTegic.value.DoubleValue
0.000

@<TRIPOS>MOLECULE
guest-s15_vm2.mol2 : vm2 ligand conformer 71
          29          28           1
SMALL
USER_CHARGES
 
@<TRIPOS>ATOM
       1    C1      19.633368   18.983398   19.766811 C.3        1 MOL1        -0.2426
       2    H1      20.026295   18.006850   20.075908 H          1 MOL1         0.0959
       3    H2      18.856498   18.803742   19.012490 H          1 MOL1         0.0959
       4    H3      20.445239   19.544673   19.286447 H          1 MOL1         0.0959
       5    C2      19.052601   19.765033   20.966636 C.3        1 MOL1        -0.1410
       6    H4      18.254485   19.177421   21.439379 H          1 MOL1         0.0948
       7    H5      18.572480   20.680270   20.593342 H          1 MOL1         0.0948
       8    C3      20.121076   20.161154   22.016954 C.3        1 MOL1        -0.1435
       9    H6      20.855390   20.825394   21.541011 H          1 MOL1         0.0948
      10    H7      19.643635   20.763693   22.800839 H          1 MOL1         0.0948
      11    C4      20.877974   18.972341   22.667695 C.3        1 MOL1        -0.1435
      12    H8      21.607006   19.370094   23.386107 H          1 MOL1         0.0948
      13    H9      21.477239   18.461653   21.902374 H          1 MOL1         0.0948
      14    C5      19.976130   17.926707   23.376593 C.3        1 MOL1        -0.1435
      15    H10     19.349982   17.419691   22.630575 H          1 MOL1         0.0948
      16    H11     20.613185   17.139341   23.800653 H          1 MOL1         0.0948
      17    C6      19.061778   18.506121   24.489080 C.3        1 MOL1        -0.1500
      18    H12     18.507601   17.683238   24.959521 H          1 MOL1         0.0948
      19    H13     18.304059   19.149103   24.023771 H          1 MOL1         0.0948
      20    C7      19.799694   19.314925   25.581192 C.3        1 MOL1         0.1162
      21    H14     20.361370   20.117824   25.094604 H          1 MOL1         0.0910
      22    C8      20.786383   18.442377   26.377087 C.3        1 MOL1        -0.2491
      23    H15     21.269681   19.028714   27.168207 H          1 MOL1         0.0959
      24    H16     20.274790   17.593095   26.846773 H          1 MOL1         0.0959
      25    H17     21.580704   18.050136   25.731458 H          1 MOL1         0.0959
      26    N1      18.826995   19.983944   26.511953 N.4        1 MOL1        -0.5987
      27    H18     19.310905   20.551776   27.213417 H          1 MOL1         0.3605
      28    H19     18.258559   19.297037   27.014703 H          1 MOL1         0.3605
      29    H20     18.186537   20.603305   26.007088 H          1 MOL1         0.3605
@<TRIPOS>BOND
    1     1     2    1
    2     1     3    1
    3     1     4    1
    4     1     5    1
    5     5     6    1
    6     5     7    1
    7     5     8    1
    8     8     9    1
    9     8    10    1
   10     8    11    1
   11    11    12    1
   12    11    13    1
   13    11    14    1
   14    14    15    1
   15    14    16    1
   16    14    17    1
   17    17    18    1
   18    17    19    1
   19    17    20    1
   20    20    21    1
   21    20    22    1
   22    22    23    1
   23    22    24    1
   24    22    25    1
   25    20    26    1
   26    26    27    1
   27    26    28    1
   28    26    29    1
@<TRIPOS>SUBSTRUCTURE
       1 MOL1            1 RESIDUE      1      MOL     
@<SCITEGIC>MOL_PROPERTY
VM2 Rank
SciTegic.value.IntegerValue
71

@<SCITEGIC>MOL_PROPERTY
Conf_Id
SciTegic.value.IntegerValue
648

@<SCITEGIC>MOL_PROPERTY
Probability
SciTegic.value.DoubleValue
0.10

@<SCITEGIC>MOL_PROPERTY
Sum Probability
SciTegic.value.DoubleValue
98.48

@<SCITEGIC>MOL_PROPERTY
Delta G
SciTegic.value.DoubleValue
2.765

@<SCITEGIC>MOL_PROPERTY
G
SciTegic.value.DoubleValue
36.467

@<SCITEGIC>MOL_PROPERTY
E
SciTegic.value.DoubleValue
-2.129

@<SCITEGIC>MOL_PROPERTY
-TS
SciTegic.value.DoubleValue
38.596

@<SCITEGIC>MOL_PROPERTY
U+W
SciTegic.value.DoubleValue
-26.273

@<SCITEGIC>MOL_PROPERTY
U
SciTegic.value.DoubleValue
26.596

@<SCITEGIC>MOL_PROPERTY
W
SciTegic.value.DoubleValue
-52.869

@<SCITEGIC>MOL_PROPERTY
W(PB)
SciTegic.value.DoubleValue
-55.272

@<SCITEGIC>MOL_PROPERTY
W(SA)
SciTegic.value.DoubleValue
2.403

@<SCITEGIC>MOL_PROPERTY
Valence
SciTegic.value.DoubleValue
5.292

@<SCITEGIC>MOL_PROPERTY
Coulomb
SciTegic.value.DoubleValue
20.508

@<SCITEGIC>MOL_PROPERTY
VdW
SciTegic.value.DoubleValue
0.796

@<SCITEGIC>MOL_PROPERTY
VdW6
SciTegic.value.DoubleValue
-11.980

@<SCITEGIC>MOL_PROPERTY
VdW12
SciTegic.value.DoubleValue
12.776

@<SCITEGIC>MOL_PROPERTY
Bond
SciTegic.value.DoubleValue
0.357

@<SCITEGIC>MOL_PROPERTY
Angle
SciTegic.value.DoubleValue
2.346

@<SCITEGIC>MOL_PROPERTY
Pdih
SciTegic.value.DoubleValue
2.589

@<SCITEGIC>MOL_PROPERTY
Idih
SciTegic.value.DoubleValue
0.000

@<SCITEGIC>MOL_PROPERTY
Tether
SciTegic.value.DoubleValue
0.000

@<TRIPOS>MOLECULE
guest-s15_vm2.mol2 : vm2 ligand conformer 72
          29          28           1
SMALL
USER_CHARGES
 
@<TRIPOS>ATOM
       1    C1      18.496941   19.673261   20.313922 C.3        1 MOL1        -0.2426
       2    H1      18.804470   19.183665   19.380844 H          1 MOL1         0.0959
       3    H2      17.928908   18.949000   20.910872 H          1 MOL1         0.0959
       4    H3      17.816680   20.494659   20.054419 H          1 MOL1         0.0959
       5    C2      19.721873   20.208793   21.088913 C.3        1 MOL1        -0.1410
       6    H4      19.391527   20.684048   22.022037 H          1 MOL1         0.0948
       7    H5      20.194864   21.004549   20.496819 H          1 MOL1         0.0948
       8    C3      20.782547   19.119526   21.389044 C.3        1 MOL1        -0.1435
       9    H6      21.171738   18.733320   20.437019 H          1 MOL1         0.0948
      10    H7      21.641722   19.586031   21.888672 H          1 MOL1         0.0948
      11    C4      20.278123   17.921560   22.238227 C.3        1 MOL1        -0.1435
      12    H8      21.119086   17.236595   22.413029 H          1 MOL1         0.0948
      13    H9      19.548034   17.346725   21.653005 H          1 MOL1         0.0948
      14    C5      19.642677   18.294631   23.602472 C.3        1 MOL1        -0.1435
      15    H10     18.741092   18.897060   23.435369 H          1 MOL1         0.0948
      16    H11     19.303804   17.365901   24.078990 H          1 MOL1         0.0948
      17    C6      20.619263   19.040013   24.552599 C.3        1 MOL1        -0.1500
      18    H12     20.945233   19.976288   24.083421 H          1 MOL1         0.0948
      19    H13     21.526367   18.436295   24.687279 H          1 MOL1         0.0948
      20    C7      20.037609   19.383457   25.944257 C.3        1 MOL1         0.1162
      21    H14     20.805013   19.943890   26.487163 H          1 MOL1         0.0910
      22    C8      19.715340   18.123642   26.766790 C.3        1 MOL1        -0.2491
      23    H15     19.442328   18.396358   27.793567 H          1 MOL1         0.0959
      24    H16     18.878521   17.560451   26.337238 H          1 MOL1         0.0959
      25    H17     20.586631   17.459129   26.819974 H          1 MOL1         0.0959
      26    N1      18.841628   20.291117   25.857775 N.4        1 MOL1        -0.5987
      27    H18     18.505850   20.556336   26.788138 H          1 MOL1         0.3605
      28    H19     18.066294   19.836477   25.369217 H          1 MOL1         0.3605
      29    H20     19.061685   21.154755   25.353604 H          1 MOL1         0.3605
@<TRIPOS>BOND
    1     1     2    1
    2     1     3    1
    3     1     4    1
    4     1     5    1
    5     5     6    1
    6     5     7    1
    7     5     8    1
    8     8     9    1
    9     8    10    1
   10     8    11    1
   11    11    12    1
   12    11    13    1
   13    11    14    1
   14    14    15    1
   15    14    16    1
   16    14    17    1
   17    17    18    1
   18    17    19    1
   19    17    20    1
   20    20    21    1
   21    20    22    1
   22    22    23    1
   23    22    24    1
   24    22    25    1
   25    20    26    1
   26    26    27    1
   27    26    28    1
   28    26    29    1
@<TRIPOS>SUBSTRUCTURE
       1 MOL1            1 RESIDUE      1      MOL     
@<SCITEGIC>MOL_PROPERTY
VM2 Rank
SciTegic.value.IntegerValue
72

@<SCITEGIC>MOL_PROPERTY
Conf_Id
SciTegic.value.IntegerValue
859

@<SCITEGIC>MOL_PROPERTY
Probability
SciTegic.value.DoubleValue
0.10

@<SCITEGIC>MOL_PROPERTY
Sum Probability
SciTegic.value.DoubleValue
98.57

@<SCITEGIC>MOL_PROPERTY
Delta G
SciTegic.value.DoubleValue
2.796

@<SCITEGIC>MOL_PROPERTY
G
SciTegic.value.DoubleValue
36.498

@<SCITEGIC>MOL_PROPERTY
E
SciTegic.value.DoubleValue
-1.798

@<SCITEGIC>MOL_PROPERTY
-TS
SciTegic.value.DoubleValue
38.296

@<SCITEGIC>MOL_PROPERTY
U+W
SciTegic.value.DoubleValue
-25.942

@<SCITEGIC>MOL_PROPERTY
U
SciTegic.value.DoubleValue
26.775

@<SCITEGIC>MOL_PROPERTY
W
SciTegic.value.DoubleValue
-52.718

@<SCITEGIC>MOL_PROPERTY
W(PB)
SciTegic.value.DoubleValue
-55.132

@<SCITEGIC>MOL_PROPERTY
W(SA)
SciTegic.value.DoubleValue
2.414

@<SCITEGIC>MOL_PROPERTY
Valence
SciTegic.value.DoubleValue
5.135

@<SCITEGIC>MOL_PROPERTY
Coulomb
SciTegic.value.DoubleValue
20.511

@<SCITEGIC>MOL_PROPERTY
VdW
SciTegic.value.DoubleValue
1.129

@<SCITEGIC>MOL_PROPERTY
VdW6
SciTegic.value.DoubleValue
-11.263

@<SCITEGIC>MOL_PROPERTY
VdW12
SciTegic.value.DoubleValue
12.392

@<SCITEGIC>MOL_PROPERTY
Bond
SciTegic.value.DoubleValue
0.358

@<SCITEGIC>MOL_PROPERTY
Angle
SciTegic.value.DoubleValue
2.222

@<SCITEGIC>MOL_PROPERTY
Pdih
SciTegic.value.DoubleValue
2.556

@<SCITEGIC>MOL_PROPERTY
Idih
SciTegic.value.DoubleValue
0.000

@<SCITEGIC>MOL_PROPERTY
Tether
SciTegic.value.DoubleValue
0.000

@<TRIPOS>MOLECULE
guest-s15_vm2.mol2 : vm2 ligand conformer 73
          29          28           1
SMALL
USER_CHARGES
 
@<TRIPOS>ATOM
       1    C1      19.428634   19.956221   19.004594 C.3        1 MOL1        -0.2426
       2    H1      20.330859   20.574367   18.909001 H          1 MOL1         0.0959
       3    H2      19.639938   18.972513   18.565363 H          1 MOL1         0.0959
       4    H3      18.633475   20.426397   18.411548 H          1 MOL1         0.0959
       5    C2      19.001055   19.823814   20.481566 C.3        1 MOL1        -0.1410
       6    H4      18.078655   19.229315   20.542041 H          1 MOL1         0.0948
       7    H5      18.763955   20.819169   20.882698 H          1 MOL1         0.0948
       8    C3      20.103803   19.164335   21.339009 C.3        1 MOL1        -0.1435
       9    H6      20.339366   18.171827   20.930506 H          1 MOL1         0.0948
      10    H7      21.024175   19.761228   21.274612 H          1 MOL1         0.0948
      11    C4      19.678717   19.028177   22.818502 C.3        1 MOL1        -0.1435
      12    H8      18.764092   18.422299   22.880608 H          1 MOL1         0.0948
      13    H9      19.441739   20.026419   23.206092 H          1 MOL1         0.0948
      14    C5      20.792463   18.381759   23.676256 C.3        1 MOL1        -0.1435
      15    H10     21.141450   17.469921   23.172049 H          1 MOL1         0.0948
      16    H11     21.659121   19.055921   23.719641 H          1 MOL1         0.0948
      17    C6      20.365781   17.995454   25.117059 C.3        1 MOL1        -0.1500
      18    H12     21.207955   17.453125   25.567331 H          1 MOL1         0.0948
      19    H13     19.532338   17.281244   25.086727 H          1 MOL1         0.0948
      20    C7      20.003757   19.190580   26.030397 C.3        1 MOL1         0.1162
      21    H14     20.704406   20.006062   25.826387 H          1 MOL1         0.0910
      22    C8      20.142869   18.795154   27.509798 C.3        1 MOL1        -0.2491
      23    H15     19.903076   19.643236   28.163059 H          1 MOL1         0.0959
      24    H16     19.469990   17.966470   27.763883 H          1 MOL1         0.0959
      25    H17     21.170172   18.483480   27.736304 H          1 MOL1         0.0959
      26    N1      18.618921   19.720506   25.776820 N.4        1 MOL1        -0.5987
      27    H18     17.907726   19.014428   25.984741 H          1 MOL1         0.3605
      28    H19     18.498597   20.000686   24.800865 H          1 MOL1         0.3605
      29    H20     18.418800   20.537712   26.360709 H          1 MOL1         0.3605
@<TRIPOS>BOND
    1     1     2    1
    2     1     3    1
    3     1     4    1
    4     1     5    1
    5     5     6    1
    6     5     7    1
    7     5     8    1
    8     8     9    1
    9     8    10    1
   10     8    11    1
   11    11    12    1
   12    11    13    1
   13    11    14    1
   14    14    15    1
   15    14    16    1
   16    14    17    1
   17    17    18    1
   18    17    19    1
   19    17    20    1
   20    20    21    1
   21    20    22    1
   22    22    23    1
   23    22    24    1
   24    22    25    1
   25    20    26    1
   26    26    27    1
   27    26    28    1
   28    26    29    1
@<TRIPOS>SUBSTRUCTURE
       1 MOL1            1 RESIDUE      1      MOL     
@<SCITEGIC>MOL_PROPERTY
VM2 Rank
SciTegic.value.IntegerValue
73

@<SCITEGIC>MOL_PROPERTY
Conf_Id
SciTegic.value.IntegerValue
675

@<SCITEGIC>MOL_PROPERTY
Probability
SciTegic.value.DoubleValue
0.08

@<SCITEGIC>MOL_PROPERTY
Sum Probability
SciTegic.value.DoubleValue
98.66

@<SCITEGIC>MOL_PROPERTY
Delta G
SciTegic.value.DoubleValue
2.891

@<SCITEGIC>MOL_PROPERTY
G
SciTegic.value.DoubleValue
36.593

@<SCITEGIC>MOL_PROPERTY
E
SciTegic.value.DoubleValue
-0.795

@<SCITEGIC>MOL_PROPERTY
-TS
SciTegic.value.DoubleValue
37.388

@<SCITEGIC>MOL_PROPERTY
U+W
SciTegic.value.DoubleValue
-24.940

@<SCITEGIC>MOL_PROPERTY
U
SciTegic.value.DoubleValue
27.200

@<SCITEGIC>MOL_PROPERTY
W
SciTegic.value.DoubleValue
-52.139

@<SCITEGIC>MOL_PROPERTY
W(PB)
SciTegic.value.DoubleValue
-54.644

@<SCITEGIC>MOL_PROPERTY
W(SA)
SciTegic.value.DoubleValue
2.504

@<SCITEGIC>MOL_PROPERTY
Valence
SciTegic.value.DoubleValue
4.958

@<SCITEGIC>MOL_PROPERTY
Coulomb
SciTegic.value.DoubleValue
21.196

@<SCITEGIC>MOL_PROPERTY
VdW
SciTegic.value.DoubleValue
1.046

@<SCITEGIC>MOL_PROPERTY
VdW6
SciTegic.value.DoubleValue
-9.034

@<SCITEGIC>MOL_PROPERTY
VdW12
SciTegic.value.DoubleValue
10.080

@<SCITEGIC>MOL_PROPERTY
Bond
SciTegic.value.DoubleValue
0.244

@<SCITEGIC>MOL_PROPERTY
Angle
SciTegic.value.DoubleValue
1.596

@<SCITEGIC>MOL_PROPERTY
Pdih
SciTegic.value.DoubleValue
3.118

@<SCITEGIC>MOL_PROPERTY
Idih
SciTegic.value.DoubleValue
0.000

@<SCITEGIC>MOL_PROPERTY
Tether
SciTegic.value.DoubleValue
0.000

@<TRIPOS>MOLECULE
guest-s15_vm2.mol2 : vm2 ligand conformer 74
          29          28           1
SMALL
USER_CHARGES
 
@<TRIPOS>ATOM
       1    C1      20.617607   20.659554   20.122618 C.3        1 MOL1        -0.2426
       2    H1      20.748178   20.705257   19.033629 H          1 MOL1         0.0959
       3    H2      20.049041   21.546444   20.431494 H          1 MOL1         0.0959
       4    H3      21.612383   20.713247   20.583891 H          1 MOL1         0.0959
       5    C2      19.886501   19.362757   20.529681 C.3        1 MOL1        -0.1410
       6    H4      20.461633   18.494187   20.179338 H          1 MOL1         0.0948
       7    H5      18.910737   19.321562   20.025644 H          1 MOL1         0.0948
       8    C3      19.688999   19.274678   22.059049 C.3        1 MOL1        -0.1435
       9    H6      20.672414   19.324868   22.543389 H          1 MOL1         0.0948
      10    H7      19.108275   20.141451   22.403220 H          1 MOL1         0.0948
      11    C4      18.971556   17.968176   22.471183 C.3        1 MOL1        -0.1435
      12    H8      19.616921   17.109781   22.238924 H          1 MOL1         0.0948
      13    H9      18.070173   17.846698   21.854615 H          1 MOL1         0.0948
      14    C5      18.546245   17.906237   23.961154 C.3        1 MOL1        -0.1435
      15    H10     17.804328   18.687193   24.171095 H          1 MOL1         0.0948
      16    H11     18.018378   16.954363   24.111670 H          1 MOL1         0.0948
      17    C6      19.717232   17.968024   24.979490 C.3        1 MOL1        -0.1500
      18    H12     20.568013   17.397663   24.583580 H          1 MOL1         0.0948
      19    H13     19.411559   17.451841   25.899309 H          1 MOL1         0.0948
      20    C7      20.172423   19.397590   25.354836 C.3        1 MOL1         0.1162
      21    H14     20.408752   19.947035   24.441110 H          1 MOL1         0.0910
      22    C8      21.441649   19.342057   26.219518 C.3        1 MOL1        -0.2491
      23    H15     21.259273   18.805063   27.158844 H          1 MOL1         0.0959
      24    H16     22.254025   18.832325   25.686615 H          1 MOL1         0.0959
      25    H17     21.788643   20.353234   26.465535 H          1 MOL1         0.0959
      26    N1      19.093787   20.176927   26.056471 N.4        1 MOL1        -0.5987
      27    H18     18.254473   20.259714   25.476743 H          1 MOL1         0.3605
      28    H19     19.404946   21.125722   26.283575 H          1 MOL1         0.3605
      29    H20     18.819389   19.726460   26.933588 H          1 MOL1         0.3605
@<TRIPOS>BOND
    1     1     2    1
    2     1     3    1
    3     1     4    1
    4     1     5    1
    5     5     6    1
    6     5     7    1
    7     5     8    1
    8     8     9    1
    9     8    10    1
   10     8    11    1
   11    11    12    1
   12    11    13    1
   13    11    14    1
   14    14    15    1
   15    14    16    1
   16    14    17    1
   17    17    18    1
   18    17    19    1
   19    17    20    1
   20    20    21    1
   21    20    22    1
   22    22    23    1
   23    22    24    1
   24    22    25    1
   25    20    26    1
   26    26    27    1
   27    26    28    1
   28    26    29    1
@<TRIPOS>SUBSTRUCTURE
       1 MOL1            1 RESIDUE      1      MOL     
@<SCITEGIC>MOL_PROPERTY
VM2 Rank
SciTegic.value.IntegerValue
74

@<SCITEGIC>MOL_PROPERTY
Conf_Id
SciTegic.value.IntegerValue
325

@<SCITEGIC>MOL_PROPERTY
Probability
SciTegic.value.DoubleValue
0.07

@<SCITEGIC>MOL_PROPERTY
Sum Probability
SciTegic.value.DoubleValue
98.72

@<SCITEGIC>MOL_PROPERTY
Delta G
SciTegic.value.DoubleValue
3.026

@<SCITEGIC>MOL_PROPERTY
G
SciTegic.value.DoubleValue
36.728

@<SCITEGIC>MOL_PROPERTY
E
SciTegic.value.DoubleValue
-0.998

@<SCITEGIC>MOL_PROPERTY
-TS
SciTegic.value.DoubleValue
37.725

@<SCITEGIC>MOL_PROPERTY
U+W
SciTegic.value.DoubleValue
-25.142

@<SCITEGIC>MOL_PROPERTY
U
SciTegic.value.DoubleValue
27.274

@<SCITEGIC>MOL_PROPERTY
W
SciTegic.value.DoubleValue
-52.416

@<SCITEGIC>MOL_PROPERTY
W(PB)
SciTegic.value.DoubleValue
-54.884

@<SCITEGIC>MOL_PROPERTY
W(SA)
SciTegic.value.DoubleValue
2.468

@<SCITEGIC>MOL_PROPERTY
Valence
SciTegic.value.DoubleValue
5.665

@<SCITEGIC>MOL_PROPERTY
Coulomb
SciTegic.value.DoubleValue
20.783

@<SCITEGIC>MOL_PROPERTY
VdW
SciTegic.value.DoubleValue
0.825

@<SCITEGIC>MOL_PROPERTY
VdW6
SciTegic.value.DoubleValue
-9.945

@<SCITEGIC>MOL_PROPERTY
VdW12
SciTegic.value.DoubleValue
10.770

@<SCITEGIC>MOL_PROPERTY
Bond
SciTegic.value.DoubleValue
0.273

@<SCITEGIC>MOL_PROPERTY
Angle
SciTegic.value.DoubleValue
1.789

@<SCITEGIC>MOL_PROPERTY
Pdih
SciTegic.value.DoubleValue
3.602

@<SCITEGIC>MOL_PROPERTY
Idih
SciTegic.value.DoubleValue
0.000

@<SCITEGIC>MOL_PROPERTY
Tether
SciTegic.value.DoubleValue
0.000

@<TRIPOS>MOLECULE
guest-s15_vm2.mol2 : vm2 ligand conformer 75
          29          28           1
SMALL
USER_CHARGES
 
@<TRIPOS>ATOM
       1    C1      20.302736   19.187791   18.915706 C.3        1 MOL1        -0.2426
       2    H1      20.259641   18.431326   18.121385 H          1 MOL1         0.0959
       3    H2      19.685136   20.040043   18.603473 H          1 MOL1         0.0959
       4    H3      21.342291   19.530900   18.998467 H          1 MOL1         0.0959
       5    C2      19.803876   18.602118   20.253585 C.3        1 MOL1        -0.1410
       6    H4      20.418948   17.731888   20.522418 H          1 MOL1         0.0948
       7    H5      18.774514   18.237190   20.130571 H          1 MOL1         0.0948
       8    C3      19.854316   19.647559   21.389579 C.3        1 MOL1        -0.1435
       9    H6      20.884660   20.010821   21.507093 H          1 MOL1         0.0948
      10    H7      19.240210   20.516469   21.115212 H          1 MOL1         0.0948
      11    C4      19.356074   19.064817   22.731177 C.3        1 MOL1        -0.1435
      12    H8      19.964137   18.190884   22.993862 H          1 MOL1         0.0948
      13    H9      18.325371   18.703615   22.610617 H          1 MOL1         0.0948
      14    C5      19.400574   20.117679   23.865757 C.3        1 MOL1        -0.1435
      15    H10     20.410133   20.541577   23.958271 H          1 MOL1         0.0948
      16    H11     18.746532   20.953689   23.581362 H          1 MOL1         0.0948
      17    C6      18.926275   19.567146   25.236888 C.3        1 MOL1        -0.1500
      18    H12     18.215682   18.742672   25.091613 H          1 MOL1         0.0948
      19    H13     18.361151   20.363174   25.739595 H          1 MOL1         0.0948
      20    C7      20.063598   19.130821   26.191684 C.3        1 MOL1         0.1162
      21    H14     20.722001   19.990206   26.351512 H          1 MOL1         0.0910
      22    C8      20.909695   17.977674   25.626442 C.3        1 MOL1        -0.2491
      23    H15     21.464657   18.296863   24.736741 H          1 MOL1         0.0959
      24    H16     21.649262   17.642674   26.364083 H          1 MOL1         0.0959
      25    H17     20.282573   17.118407   25.358196 H          1 MOL1         0.0959
      26    N1      19.518856   18.760393   27.543181 N.4        1 MOL1        -0.5987
      27    H18     18.891123   17.953992   27.484914 H          1 MOL1         0.3605
      28    H19     18.991104   19.531907   27.961660 H          1 MOL1         0.3605
      29    H20     20.270021   18.516434   28.195031 H          1 MOL1         0.3605
@<TRIPOS>BOND
    1     1     2    1
    2     1     3    1
    3     1     4    1
    4     1     5    1
    5     5     6    1
    6     5     7    1
    7     5     8    1
    8     8     9    1
    9     8    10    1
   10     8    11    1
   11    11    12    1
   12    11    13    1
   13    11    14    1
   14    14    15    1
   15    14    16    1
   16    14    17    1
   17    17    18    1
   18    17    19    1
   19    17    20    1
   20    20    21    1
   21    20    22    1
   22    22    23    1
   23    22    24    1
   24    22    25    1
   25    20    26    1
   26    26    27    1
   27    26    28    1
   28    26    29    1
@<TRIPOS>SUBSTRUCTURE
       1 MOL1            1 RESIDUE      1      MOL     
@<SCITEGIC>MOL_PROPERTY
VM2 Rank
SciTegic.value.IntegerValue
75

@<SCITEGIC>MOL_PROPERTY
Conf_Id
SciTegic.value.IntegerValue
1373

@<SCITEGIC>MOL_PROPERTY
Probability
SciTegic.value.DoubleValue
0.05

@<SCITEGIC>MOL_PROPERTY
Sum Probability
SciTegic.value.DoubleValue
98.77

@<SCITEGIC>MOL_PROPERTY
Delta G
SciTegic.value.DoubleValue
3.194

@<SCITEGIC>MOL_PROPERTY
G
SciTegic.value.DoubleValue
36.895

@<SCITEGIC>MOL_PROPERTY
E
SciTegic.value.DoubleValue
-0.780

@<SCITEGIC>MOL_PROPERTY
-TS
SciTegic.value.DoubleValue
37.676

@<SCITEGIC>MOL_PROPERTY
U+W
SciTegic.value.DoubleValue
-24.925

@<SCITEGIC>MOL_PROPERTY
U
SciTegic.value.DoubleValue
27.070

@<SCITEGIC>MOL_PROPERTY
W
SciTegic.value.DoubleValue
-51.995

@<SCITEGIC>MOL_PROPERTY
W(PB)
SciTegic.value.DoubleValue
-54.496

@<SCITEGIC>MOL_PROPERTY
W(SA)
SciTegic.value.DoubleValue
2.501

@<SCITEGIC>MOL_PROPERTY
Valence
SciTegic.value.DoubleValue
6.259

@<SCITEGIC>MOL_PROPERTY
Coulomb
SciTegic.value.DoubleValue
19.668

@<SCITEGIC>MOL_PROPERTY
VdW
SciTegic.value.DoubleValue
1.143

@<SCITEGIC>MOL_PROPERTY
VdW6
SciTegic.value.DoubleValue
-9.081

@<SCITEGIC>MOL_PROPERTY
VdW12
SciTegic.value.DoubleValue
10.224

@<SCITEGIC>MOL_PROPERTY
Bond
SciTegic.value.DoubleValue
0.251

@<SCITEGIC>MOL_PROPERTY
Angle
SciTegic.value.DoubleValue
1.658

@<SCITEGIC>MOL_PROPERTY
Pdih
SciTegic.value.DoubleValue
4.351

@<SCITEGIC>MOL_PROPERTY
Idih
SciTegic.value.DoubleValue
0.000

@<SCITEGIC>MOL_PROPERTY
Tether
SciTegic.value.DoubleValue
0.000

@<TRIPOS>MOLECULE
guest-s15_vm2.mol2 : vm2 ligand conformer 76
          29          28           1
SMALL
USER_CHARGES
 
@<TRIPOS>ATOM
       1    C1      19.196226   19.162867   19.130495 C.3        1 MOL1        -0.2426
       2    H1      18.335517   19.446679   18.511084 H          1 MOL1         0.0959
       3    H2      20.075801   19.699585   18.751639 H          1 MOL1         0.0959
       4    H3      19.368080   18.086914   18.996191 H          1 MOL1         0.0959
       5    C2      18.935868   19.501999   20.613389 C.3        1 MOL1        -0.1410
       6    H4      18.031900   18.977674   20.953619 H          1 MOL1         0.0948
       7    H5      18.734460   20.577989   20.711268 H          1 MOL1         0.0948
       8    C3      20.133471   19.112122   21.507706 C.3        1 MOL1        -0.1435
       9    H6      20.332063   18.036202   21.405597 H          1 MOL1         0.0948
      10    H7      21.034687   19.636123   21.160376 H          1 MOL1         0.0948
      11    C4      19.877172   19.451460   22.993269 C.3        1 MOL1        -0.1435
      12    H8      18.971796   18.926525   23.320760 H          1 MOL1         0.0948
      13    H9      19.688649   20.529225   23.094224 H          1 MOL1         0.0948
      14    C5      21.073015   19.046082   23.887316 C.3        1 MOL1        -0.1435
      15    H10     21.199474   17.955427   23.863399 H          1 MOL1         0.0948
      16    H11     21.992636   19.460492   23.451634 H          1 MOL1         0.0948
      17    C6      20.982185   19.540584   25.358595 C.3        1 MOL1        -0.1500
      18    H12     20.981980   20.638352   25.372625 H          1 MOL1         0.0948
      19    H13     21.908651   19.243754   25.867596 H          1 MOL1         0.0948
      20    C7      19.795385   19.026807   26.213130 C.3        1 MOL1         0.1162
      21    H14     20.016739   19.291693   27.251658 H          1 MOL1         0.0910
      22    C8      19.645519   17.496776   26.152542 C.3        1 MOL1        -0.2491
      23    H15     19.330380   17.159717   25.157799 H          1 MOL1         0.0959
      24    H16     20.593982   17.003550   26.398909 H          1 MOL1         0.0959
      25    H17     18.894945   17.155425   26.875881 H          1 MOL1         0.0959
      26    N1      18.497159   19.717303   25.897558 N.4        1 MOL1        -0.5987
      27    H18     18.204228   19.535598   24.935444 H          1 MOL1         0.3605
      28    H19     18.576241   20.732091   26.010181 H          1 MOL1         0.3605
      29    H20     17.745274   19.398995   26.515730 H          1 MOL1         0.3605
@<TRIPOS>BOND
    1     1     2    1
    2     1     3    1
    3     1     4    1
    4     1     5    1
    5     5     6    1
    6     5     7    1
    7     5     8    1
    8     8     9    1
    9     8    10    1
   10     8    11    1
   11    11    12    1
   12    11    13    1
   13    11    14    1
   14    14    15    1
   15    14    16    1
   16    14    17    1
   17    17    18    1
   18    17    19    1
   19    17    20    1
   20    20    21    1
   21    20    22    1
   22    22    23    1
   23    22    24    1
   24    22    25    1
   25    20    26    1
   26    26    27    1
   27    26    28    1
   28    26    29    1
@<TRIPOS>SUBSTRUCTURE
       1 MOL1            1 RESIDUE      1      MOL     
@<SCITEGIC>MOL_PROPERTY
VM2 Rank
SciTegic.value.IntegerValue
76

@<SCITEGIC>MOL_PROPERTY
Conf_Id
SciTegic.value.IntegerValue
1308

@<SCITEGIC>MOL_PROPERTY
Probability
SciTegic.value.DoubleValue
0.05

@<SCITEGIC>MOL_PROPERTY
Sum Probability
SciTegic.value.DoubleValue
98.82

@<SCITEGIC>MOL_PROPERTY
Delta G
SciTegic.value.DoubleValue
3.230

@<SCITEGIC>MOL_PROPERTY
G
SciTegic.value.DoubleValue
36.932

@<SCITEGIC>MOL_PROPERTY
E
SciTegic.value.DoubleValue
-1.036

@<SCITEGIC>MOL_PROPERTY
-TS
SciTegic.value.DoubleValue
37.968

@<SCITEGIC>MOL_PROPERTY
U+W
SciTegic.value.DoubleValue
-25.180

@<SCITEGIC>MOL_PROPERTY
U
SciTegic.value.DoubleValue
27.314

@<SCITEGIC>MOL_PROPERTY
W
SciTegic.value.DoubleValue
-52.494

@<SCITEGIC>MOL_PROPERTY
W(PB)
SciTegic.value.DoubleValue
-54.962

@<SCITEGIC>MOL_PROPERTY
W(SA)
SciTegic.value.DoubleValue
2.468

@<SCITEGIC>MOL_PROPERTY
Valence
SciTegic.value.DoubleValue
5.057

@<SCITEGIC>MOL_PROPERTY
Coulomb
SciTegic.value.DoubleValue
21.358

@<SCITEGIC>MOL_PROPERTY
VdW
SciTegic.value.DoubleValue
0.900

@<SCITEGIC>MOL_PROPERTY
VdW6
SciTegic.value.DoubleValue
-10.072

@<SCITEGIC>MOL_PROPERTY
VdW12
SciTegic.value.DoubleValue
10.972

@<SCITEGIC>MOL_PROPERTY
Bond
SciTegic.value.DoubleValue
0.294

@<SCITEGIC>MOL_PROPERTY
Angle
SciTegic.value.DoubleValue
2.163

@<SCITEGIC>MOL_PROPERTY
Pdih
SciTegic.value.DoubleValue
2.600

@<SCITEGIC>MOL_PROPERTY
Idih
SciTegic.value.DoubleValue
0.000

@<SCITEGIC>MOL_PROPERTY
Tether
SciTegic.value.DoubleValue
0.000

@<TRIPOS>MOLECULE
guest-s15_vm2.mol2 : vm2 ligand conformer 77
          29          28           1
SMALL
USER_CHARGES
 
@<TRIPOS>ATOM
       1    C1      20.762994   20.365129   20.580300 C.3        1 MOL1        -0.2426
       2    H1      20.227777   21.225695   21.001987 H          1 MOL1         0.0959
       3    H2      21.411052   19.940498   21.356800 H          1 MOL1         0.0959
       4    H3      21.413452   20.734545   19.776996 H          1 MOL1         0.0959
       5    C2      19.777725   19.309242   20.033760 C.3        1 MOL1        -0.1410
       6    H4      20.340724   18.433825   19.681099 H          1 MOL1         0.0948
       7    H5      19.273312   19.722906   19.149357 H          1 MOL1         0.0948
       8    C3      18.697090   18.857440   21.048989 C.3        1 MOL1        -0.1435
       9    H6      18.062092   19.709291   21.328561 H          1 MOL1         0.0948
      10    H7      18.033265   18.151002   20.531651 H          1 MOL1         0.0948
      11    C4      19.250759   18.158263   22.317882 C.3        1 MOL1        -0.1435
      12    H8      20.196258   17.649722   22.084377 H          1 MOL1         0.0948
      13    H9      18.546456   17.368714   22.614501 H          1 MOL1         0.0948
      14    C5      19.433437   19.117087   23.519806 C.3        1 MOL1        -0.1435
      15    H10     20.108326   19.939204   23.253590 H          1 MOL1         0.0948
      16    H11     18.464159   19.571906   23.763132 H          1 MOL1         0.0948
      17    C6      19.994439   18.378657   24.759211 C.3        1 MOL1        -0.1500
      18    H12     20.935186   17.884745   24.481502 H          1 MOL1         0.0948
      19    H13     19.300914   17.583653   25.064098 H          1 MOL1         0.0948
      20    C7      20.261192   19.321383   25.952509 C.3        1 MOL1         0.1162
      21    H14     20.933733   20.117040   25.617451 H          1 MOL1         0.0910
      22    C8      20.949399   18.556597   27.094313 C.3        1 MOL1        -0.2491
      23    H15     21.174764   19.228789   27.931434 H          1 MOL1         0.0959
      24    H16     20.312742   17.745287   27.469001 H          1 MOL1         0.0959
      25    H17     21.896487   18.118797   26.755031 H          1 MOL1         0.0959
      26    N1      19.008964   19.992203   26.447230 N.4        1 MOL1        -0.5987
      27    H18     19.207444   20.627917   27.225126 H          1 MOL1         0.3605
      28    H19     18.324740   19.306722   26.778130 H          1 MOL1         0.3605
      29    H20     18.562702   20.542075   25.708217 H          1 MOL1         0.3605
@<TRIPOS>BOND
    1     1     2    1
    2     1     3    1
    3     1     4    1
    4     1     5    1
    5     5     6    1
    6     5     7    1
    7     5     8    1
    8     8     9    1
    9     8    10    1
   10     8    11    1
   11    11    12    1
   12    11    13    1
   13    11    14    1
   14    14    15    1
   15    14    16    1
   16    14    17    1
   17    17    18    1
   18    17    19    1
   19    17    20    1
   20    20    21    1
   21    20    22    1
   22    22    23    1
   23    22    24    1
   24    22    25    1
   25    20    26    1
   26    26    27    1
   27    26    28    1
   28    26    29    1
@<TRIPOS>SUBSTRUCTURE
       1 MOL1            1 RESIDUE      1      MOL     
@<SCITEGIC>MOL_PROPERTY
VM2 Rank
SciTegic.value.IntegerValue
77

@<SCITEGIC>MOL_PROPERTY
Conf_Id
SciTegic.value.IntegerValue
843

@<SCITEGIC>MOL_PROPERTY
Probability
SciTegic.value.DoubleValue
0.05

@<SCITEGIC>MOL_PROPERTY
Sum Probability
SciTegic.value.DoubleValue
98.87

@<SCITEGIC>MOL_PROPERTY
Delta G
SciTegic.value.DoubleValue
3.252

@<SCITEGIC>MOL_PROPERTY
G
SciTegic.value.DoubleValue
36.954

@<SCITEGIC>MOL_PROPERTY
E
SciTegic.value.DoubleValue
-0.781

@<SCITEGIC>MOL_PROPERTY
-TS
SciTegic.value.DoubleValue
37.736

@<SCITEGIC>MOL_PROPERTY
U+W
SciTegic.value.DoubleValue
-24.926

@<SCITEGIC>MOL_PROPERTY
U
SciTegic.value.DoubleValue
27.363

@<SCITEGIC>MOL_PROPERTY
W
SciTegic.value.DoubleValue
-52.289

@<SCITEGIC>MOL_PROPERTY
W(PB)
SciTegic.value.DoubleValue
-54.777

@<SCITEGIC>MOL_PROPERTY
W(SA)
SciTegic.value.DoubleValue
2.488

@<SCITEGIC>MOL_PROPERTY
Valence
SciTegic.value.DoubleValue
6.134

@<SCITEGIC>MOL_PROPERTY
Coulomb
SciTegic.value.DoubleValue
20.079

@<SCITEGIC>MOL_PROPERTY
VdW
SciTegic.value.DoubleValue
1.150

@<SCITEGIC>MOL_PROPERTY
VdW6
SciTegic.value.DoubleValue
-9.534

@<SCITEGIC>MOL_PROPERTY
VdW12
SciTegic.value.DoubleValue
10.684

@<SCITEGIC>MOL_PROPERTY
Bond
SciTegic.value.DoubleValue
0.272

@<SCITEGIC>MOL_PROPERTY
Angle
SciTegic.value.DoubleValue
1.638

@<SCITEGIC>MOL_PROPERTY
Pdih
SciTegic.value.DoubleValue
4.224

@<SCITEGIC>MOL_PROPERTY
Idih
SciTegic.value.DoubleValue
0.000

@<SCITEGIC>MOL_PROPERTY
Tether
SciTegic.value.DoubleValue
0.000

@<TRIPOS>MOLECULE
guest-s15_vm2.mol2 : vm2 ligand conformer 78
          29          28           1
SMALL
USER_CHARGES
 
@<TRIPOS>ATOM
       1    C1      18.683499   18.837220   19.717156 C.3        1 MOL1        -0.2426
       2    H1      19.440457   18.162505   19.296673 H          1 MOL1         0.0959
       3    H2      18.115916   18.286766   20.477629 H          1 MOL1         0.0959
       4    H3      17.985615   19.102150   18.912361 H          1 MOL1         0.0959
       5    C2      19.337373   20.107808   20.305809 C.3        1 MOL1        -0.1410
       6    H4      18.563299   20.751239   20.746812 H          1 MOL1         0.0948
       7    H5      19.787711   20.686013   19.486886 H          1 MOL1         0.0948
       8    C3      20.430225   19.805586   21.359350 C.3        1 MOL1        -0.1435
       9    H6      21.214007   19.183279   20.905829 H          1 MOL1         0.0948
      10    H7      20.912062   20.751535   21.642774 H          1 MOL1         0.0948
      11    C4      19.885510   19.114492   22.632233 C.3        1 MOL1        -0.1435
      12    H8      19.471794   18.131641   22.371020 H          1 MOL1         0.0948
      13    H9      19.058394   19.710258   23.032767 H          1 MOL1         0.0948
      14    C5      20.994474   18.927973   23.697211 C.3        1 MOL1        -0.1435
      15    H10     21.812133   18.354870   23.238309 H          1 MOL1         0.0948
      16    H11     21.425333   19.899460   23.976589 H          1 MOL1         0.0948
      17    C6      20.529996   18.169857   24.968880 C.3        1 MOL1        -0.1500
      18    H12     21.408575   17.666263   25.393854 H          1 MOL1         0.0948
      19    H13     19.825991   17.370757   24.701420 H          1 MOL1         0.0948
      20    C7      19.927717   19.072220   26.071401 C.3        1 MOL1         0.1162
      21    H14     20.653215   19.858419   26.301832 H          1 MOL1         0.0910
      22    C8      19.684276   18.255278   27.350657 C.3        1 MOL1        -0.2491
      23    H15     19.295041   18.895177   28.152193 H          1 MOL1         0.0959
      24    H16     18.960868   17.449190   27.174970 H          1 MOL1         0.0959
      25    H17     20.617760   17.804340   27.709832 H          1 MOL1         0.0959
      26    N1      18.662929   19.765565   25.651304 N.4        1 MOL1        -0.5987
      27    H18     18.295209   20.358639   26.400780 H          1 MOL1         0.3605
      28    H19     17.933158   19.091665   25.404964 H          1 MOL1         0.3605
      29    H20     18.824144   20.363646   24.836814 H          1 MOL1         0.3605
@<TRIPOS>BOND
    1     1     2    1
    2     1     3    1
    3     1     4    1
    4     1     5    1
    5     5     6    1
    6     5     7    1
    7     5     8    1
    8     8     9    1
    9     8    10    1
   10     8    11    1
   11    11    12    1
   12    11    13    1
   13    11    14    1
   14    14    15    1
   15    14    16    1
   16    14    17    1
   17    17    18    1
   18    17    19    1
   19    17    20    1
   20    20    21    1
   21    20    22    1
   22    22    23    1
   23    22    24    1
   24    22    25    1
   25    20    26    1
   26    26    27    1
   27    26    28    1
   28    26    29    1
@<TRIPOS>SUBSTRUCTURE
       1 MOL1            1 RESIDUE      1      MOL     
@<SCITEGIC>MOL_PROPERTY
VM2 Rank
SciTegic.value.IntegerValue
78

@<SCITEGIC>MOL_PROPERTY
Conf_Id
SciTegic.value.IntegerValue
1326

@<SCITEGIC>MOL_PROPERTY
Probability
SciTegic.value.DoubleValue
0.04

@<SCITEGIC>MOL_PROPERTY
Sum Probability
SciTegic.value.DoubleValue
98.91

@<SCITEGIC>MOL_PROPERTY
Delta G
SciTegic.value.DoubleValue
3.272

@<SCITEGIC>MOL_PROPERTY
G
SciTegic.value.DoubleValue
36.974

@<SCITEGIC>MOL_PROPERTY
E
SciTegic.value.DoubleValue
-0.301

@<SCITEGIC>MOL_PROPERTY
-TS
SciTegic.value.DoubleValue
37.275

@<SCITEGIC>MOL_PROPERTY
U+W
SciTegic.value.DoubleValue
-24.446

@<SCITEGIC>MOL_PROPERTY
U
SciTegic.value.DoubleValue
27.677

@<SCITEGIC>MOL_PROPERTY
W
SciTegic.value.DoubleValue
-52.122

@<SCITEGIC>MOL_PROPERTY
W(PB)
SciTegic.value.DoubleValue
-54.606

@<SCITEGIC>MOL_PROPERTY
W(SA)
SciTegic.value.DoubleValue
2.484

@<SCITEGIC>MOL_PROPERTY
Valence
SciTegic.value.DoubleValue
5.650

@<SCITEGIC>MOL_PROPERTY
Coulomb
SciTegic.value.DoubleValue
20.827

@<SCITEGIC>MOL_PROPERTY
VdW
SciTegic.value.DoubleValue
1.200

@<SCITEGIC>MOL_PROPERTY
VdW6
SciTegic.value.DoubleValue
-9.461

@<SCITEGIC>MOL_PROPERTY
VdW12
SciTegic.value.DoubleValue
10.661

@<SCITEGIC>MOL_PROPERTY
Bond
SciTegic.value.DoubleValue
0.293

@<SCITEGIC>MOL_PROPERTY
Angle
SciTegic.value.DoubleValue
1.684

@<SCITEGIC>MOL_PROPERTY
Pdih
SciTegic.value.DoubleValue
3.672

@<SCITEGIC>MOL_PROPERTY
Idih
SciTegic.value.DoubleValue
0.000

@<SCITEGIC>MOL_PROPERTY
Tether
SciTegic.value.DoubleValue
0.000

@<TRIPOS>MOLECULE
guest-s15_vm2.mol2 : vm2 ligand conformer 79
          29          28           1
SMALL
USER_CHARGES
 
@<TRIPOS>ATOM
       1    C1      18.495698   18.480149   19.964964 C.3        1 MOL1        -0.2426
       2    H1      17.563288   18.801498   20.447204 H          1 MOL1         0.0959
       3    H2      18.659369   19.111621   19.081964 H          1 MOL1         0.0959
       4    H3      18.358068   17.447242   19.619728 H          1 MOL1         0.0959
       5    C2      19.686006   18.573915   20.942698 C.3        1 MOL1        -0.1410
       6    H4      20.595227   18.213945   20.441260 H          1 MOL1         0.0948
       7    H5      19.509003   17.899122   21.788587 H          1 MOL1         0.0948
       8    C3      19.906110   20.024781   21.434777 C.3        1 MOL1        -0.1435
       9    H6      20.107401   20.654959   20.557415 H          1 MOL1         0.0948
      10    H7      18.986021   20.420194   21.886592 H          1 MOL1         0.0948
      11    C4      21.091656   20.169943   22.424275 C.3        1 MOL1        -0.1435
      12    H8      21.579934   21.135489   22.232616 H          1 MOL1         0.0948
      13    H9      21.855498   19.407232   22.219403 H          1 MOL1         0.0948
      14    C5      20.693371   20.139100   23.922405 C.3        1 MOL1        -0.1435
      15    H10     21.595422   20.324176   24.522111 H          1 MOL1         0.0948
      16    H11     20.010331   20.974188   24.127693 H          1 MOL1         0.0948
      17    C6      20.049279   18.807844   24.381910 C.3        1 MOL1        -0.1500
      18    H12     20.680043   17.973022   24.048840 H          1 MOL1         0.0948
      19    H13     19.069946   18.682111   23.903306 H          1 MOL1         0.0948
      20    C7      19.878366   18.722510   25.913737 C.3        1 MOL1         0.1162
      21    H14     20.859216   18.867394   26.376956 H          1 MOL1         0.0910
      22    C8      19.354359   17.334907   26.316403 C.3        1 MOL1        -0.2491
      23    H15     20.039285   16.546786   25.979514 H          1 MOL1         0.0959
      24    H16     19.265692   17.254794   27.406869 H          1 MOL1         0.0959
      25    H17     18.367549   17.140444   25.877844 H          1 MOL1         0.0959
      26    N1      18.981153   19.802850   26.452831 N.4        1 MOL1        -0.5987
      27    H18     18.897031   19.745390   27.471782 H          1 MOL1         0.3605
      28    H19     18.037632   19.733347   26.062488 H          1 MOL1         0.3605
      29    H20     19.341196   20.734033   26.226974 H          1 MOL1         0.3605
@<TRIPOS>BOND
    1     1     2    1
    2     1     3    1
    3     1     4    1
    4     1     5    1
    5     5     6    1
    6     5     7    1
    7     5     8    1
    8     8     9    1
    9     8    10    1
   10     8    11    1
   11    11    12    1
   12    11    13    1
   13    11    14    1
   14    14    15    1
   15    14    16    1
   16    14    17    1
   17    17    18    1
   18    17    19    1
   19    17    20    1
   20    20    21    1
   21    20    22    1
   22    22    23    1
   23    22    24    1
   24    22    25    1
   25    20    26    1
   26    26    27    1
   27    26    28    1
   28    26    29    1
@<TRIPOS>SUBSTRUCTURE
       1 MOL1            1 RESIDUE      1      MOL     
@<SCITEGIC>MOL_PROPERTY
VM2 Rank
SciTegic.value.IntegerValue
79

@<SCITEGIC>MOL_PROPERTY
Conf_Id
SciTegic.value.IntegerValue
486

@<SCITEGIC>MOL_PROPERTY
Probability
SciTegic.value.DoubleValue
0.04

@<SCITEGIC>MOL_PROPERTY
Sum Probability
SciTegic.value.DoubleValue
98.95

@<SCITEGIC>MOL_PROPERTY
Delta G
SciTegic.value.DoubleValue
3.309

@<SCITEGIC>MOL_PROPERTY
G
SciTegic.value.DoubleValue
37.011

@<SCITEGIC>MOL_PROPERTY
E
SciTegic.value.DoubleValue
-0.768

@<SCITEGIC>MOL_PROPERTY
-TS
SciTegic.value.DoubleValue
37.778

@<SCITEGIC>MOL_PROPERTY
U+W
SciTegic.value.DoubleValue
-24.912

@<SCITEGIC>MOL_PROPERTY
U
SciTegic.value.DoubleValue
27.426

@<SCITEGIC>MOL_PROPERTY
W
SciTegic.value.DoubleValue
-52.338

@<SCITEGIC>MOL_PROPERTY
W(PB)
SciTegic.value.DoubleValue
-54.832

@<SCITEGIC>MOL_PROPERTY
W(SA)
SciTegic.value.DoubleValue
2.495

@<SCITEGIC>MOL_PROPERTY
Valence
SciTegic.value.DoubleValue
6.169

@<SCITEGIC>MOL_PROPERTY
Coulomb
SciTegic.value.DoubleValue
20.212

@<SCITEGIC>MOL_PROPERTY
VdW
SciTegic.value.DoubleValue
1.045

@<SCITEGIC>MOL_PROPERTY
VdW6
SciTegic.value.DoubleValue
-9.697

@<SCITEGIC>MOL_PROPERTY
VdW12
SciTegic.value.DoubleValue
10.741

@<SCITEGIC>MOL_PROPERTY
Bond
SciTegic.value.DoubleValue
0.273

@<SCITEGIC>MOL_PROPERTY
Angle
SciTegic.value.DoubleValue
1.616

@<SCITEGIC>MOL_PROPERTY
Pdih
SciTegic.value.DoubleValue
4.280

@<SCITEGIC>MOL_PROPERTY
Idih
SciTegic.value.DoubleValue
0.000

@<SCITEGIC>MOL_PROPERTY
Tether
SciTegic.value.DoubleValue
0.000

@<TRIPOS>MOLECULE
guest-s15_vm2.mol2 : vm2 ligand conformer 80
          29          28           1
SMALL
USER_CHARGES
 
@<TRIPOS>ATOM
       1    C1      19.034119   19.283027   19.064069 C.3        1 MOL1        -0.2426
       2    H1      19.060149   18.578084   18.222986 H          1 MOL1         0.0959
       3    H2      17.984654   19.544526   19.252441 H          1 MOL1         0.0959
       4    H3      19.563772   20.194221   18.756755 H          1 MOL1         0.0959
       5    C2      19.683970   18.659954   20.317571 C.3        1 MOL1        -0.1410
       6    H4      20.721328   18.378241   20.088626 H          1 MOL1         0.0948
       7    H5      19.154319   17.733525   20.580405 H          1 MOL1         0.0948
       8    C3      19.660390   19.632667   21.517262 C.3        1 MOL1        -0.1435
       9    H6      20.188676   20.558006   21.248826 H          1 MOL1         0.0948
      10    H7      18.621694   19.912920   21.740696 H          1 MOL1         0.0948
      11    C4      20.309846   19.012167   22.774669 C.3        1 MOL1        -0.1435
      12    H8      21.348455   18.734307   22.548031 H          1 MOL1         0.0948
      13    H9      19.785841   18.083467   23.029343 H          1 MOL1         0.0948
      14    C5      20.290306   19.992403   23.973148 C.3        1 MOL1        -0.1435
      15    H10     20.845908   20.894771   23.682506 H          1 MOL1         0.0948
      16    H11     19.263645   20.323836   24.175490 H          1 MOL1         0.0948
      17    C6      20.942715   19.412567   25.259291 C.3        1 MOL1        -0.1500
      18    H12     21.464088   20.227685   25.778211 H          1 MOL1         0.0948
      19    H13     21.727800   18.694158   24.988995 H          1 MOL1         0.0948
      20    C7      19.976185   18.758622   26.277827 C.3        1 MOL1         0.1162
      21    H14     20.585712   18.395716   27.111196 H          1 MOL1         0.0910
      22    C8      19.221700   17.551362   25.698245 C.3        1 MOL1        -0.2491
      23    H15     18.494876   17.859509   24.937344 H          1 MOL1         0.0959
      24    H16     19.919092   16.835206   25.246383 H          1 MOL1         0.0959
      25    H17     18.673167   17.026829   26.490138 H          1 MOL1         0.0959
      26    N1      19.016767   19.753233   26.871917 N.4        1 MOL1        -0.5987
      27    H18     19.510839   20.535553   27.310743 H          1 MOL1         0.3605
      28    H19     18.428142   19.321642   27.590166 H          1 MOL1         0.3605
      29    H20     18.395425   20.142515   26.158670 H          1 MOL1         0.3605
@<TRIPOS>BOND
    1     1     2    1
    2     1     3    1
    3     1     4    1
    4     1     5    1
    5     5     6    1
    6     5     7    1
    7     5     8    1
    8     8     9    1
    9     8    10    1
   10     8    11    1
   11    11    12    1
   12    11    13    1
   13    11    14    1
   14    14    15    1
   15    14    16    1
   16    14    17    1
   17    17    18    1
   18    17    19    1
   19    17    20    1
   20    20    21    1
   21    20    22    1
   22    22    23    1
   23    22    24    1
   24    22    25    1
   25    20    26    1
   26    26    27    1
   27    26    28    1
   28    26    29    1
@<TRIPOS>SUBSTRUCTURE
       1 MOL1            1 RESIDUE      1      MOL     
@<SCITEGIC>MOL_PROPERTY
VM2 Rank
SciTegic.value.IntegerValue
80

@<SCITEGIC>MOL_PROPERTY
Conf_Id
SciTegic.value.IntegerValue
153

@<SCITEGIC>MOL_PROPERTY
Probability
SciTegic.value.DoubleValue
0.04

@<SCITEGIC>MOL_PROPERTY
Sum Probability
SciTegic.value.DoubleValue
98.99

@<SCITEGIC>MOL_PROPERTY
Delta G
SciTegic.value.DoubleValue
3.339

@<SCITEGIC>MOL_PROPERTY
G
SciTegic.value.DoubleValue
37.041

@<SCITEGIC>MOL_PROPERTY
E
SciTegic.value.DoubleValue
-0.701

@<SCITEGIC>MOL_PROPERTY
-TS
SciTegic.value.DoubleValue
37.741

@<SCITEGIC>MOL_PROPERTY
U+W
SciTegic.value.DoubleValue
-24.845

@<SCITEGIC>MOL_PROPERTY
U
SciTegic.value.DoubleValue
27.319

@<SCITEGIC>MOL_PROPERTY
W
SciTegic.value.DoubleValue
-52.164

@<SCITEGIC>MOL_PROPERTY
W(PB)
SciTegic.value.DoubleValue
-54.657

@<SCITEGIC>MOL_PROPERTY
W(SA)
SciTegic.value.DoubleValue
2.493

@<SCITEGIC>MOL_PROPERTY
Valence
SciTegic.value.DoubleValue
6.250

@<SCITEGIC>MOL_PROPERTY
Coulomb
SciTegic.value.DoubleValue
19.964

@<SCITEGIC>MOL_PROPERTY
VdW
SciTegic.value.DoubleValue
1.105

@<SCITEGIC>MOL_PROPERTY
VdW6
SciTegic.value.DoubleValue
-9.528

@<SCITEGIC>MOL_PROPERTY
VdW12
SciTegic.value.DoubleValue
10.633

@<SCITEGIC>MOL_PROPERTY
Bond
SciTegic.value.DoubleValue
0.282

@<SCITEGIC>MOL_PROPERTY
Angle
SciTegic.value.DoubleValue
1.801

@<SCITEGIC>MOL_PROPERTY
Pdih
SciTegic.value.DoubleValue
4.166

@<SCITEGIC>MOL_PROPERTY
Idih
SciTegic.value.DoubleValue
0.000

@<SCITEGIC>MOL_PROPERTY
Tether
SciTegic.value.DoubleValue
0.000

@<TRIPOS>MOLECULE
guest-s15_vm2.mol2 : vm2 ligand conformer 81
          29          28           1
SMALL
USER_CHARGES
 
@<TRIPOS>ATOM
       1    C1      19.780810   20.898368   20.589744 C.3        1 MOL1        -0.2426
       2    H1      18.782949   21.134203   20.197708 H          1 MOL1         0.0959
       3    H2      19.785886   21.130521   21.660242 H          1 MOL1         0.0959
       4    H3      20.497774   21.570436   20.100685 H          1 MOL1         0.0959
       5    C2      20.147734   19.421973   20.311595 C.3        1 MOL1        -0.1410
       6    H4      21.173521   19.213511   20.646053 H          1 MOL1         0.0948
       7    H5      20.148967   19.273488   19.222642 H          1 MOL1         0.0948
       8    C3      19.158044   18.411116   20.946042 C.3        1 MOL1        -0.1435
       9    H6      18.153819   18.852076   21.010934 H          1 MOL1         0.0948
      10    H7      19.061090   17.554676   20.264519 H          1 MOL1         0.0948
      11    C4      19.588293   17.858463   22.329376 C.3        1 MOL1        -0.1435
      12    H8      20.544414   17.326696   22.227923 H          1 MOL1         0.0948
      13    H9      18.851541   17.105769   22.642370 H          1 MOL1         0.0948
      14    C5      19.711236   18.931973   23.435178 C.3        1 MOL1        -0.1435
      15    H10     20.537911   19.613318   23.195441 H          1 MOL1         0.0948
      16    H11     18.790678   19.529771   23.461539 H          1 MOL1         0.0948
      17    C6      19.971741   18.297228   24.822781 C.3        1 MOL1        -0.1500
      18    H12     20.860961   17.655971   24.757944 H          1 MOL1         0.0948
      19    H13     19.132813   17.643582   25.096476 H          1 MOL1         0.0948
      20    C7      20.194796   19.347368   25.932390 C.3        1 MOL1         0.1162
      21    H14     21.018115   20.000171   25.626389 H          1 MOL1         0.0910
      22    C8      20.588526   18.658633   27.248762 C.3        1 MOL1        -0.2491
      23    H15     20.784106   19.401202   28.032180 H          1 MOL1         0.0959
      24    H16     19.792133   17.991228   27.601289 H          1 MOL1         0.0959
      25    H17     21.500995   18.063272   27.119526 H          1 MOL1         0.0959
      26    N1      18.994820   20.230879   26.138132 N.4        1 MOL1        -0.5987
      27    H18     18.746772   20.730075   25.279722 H          1 MOL1         0.3605
      28    H19     19.167581   20.933567   26.862743 H          1 MOL1         0.3605
      29    H20     18.177015   19.687309   26.426738 H          1 MOL1         0.3605
@<TRIPOS>BOND
    1     1     2    1
    2     1     3    1
    3     1     4    1
    4     1     5    1
    5     5     6    1
    6     5     7    1
    7     5     8    1
    8     8     9    1
    9     8    10    1
   10     8    11    1
   11    11    12    1
   12    11    13    1
   13    11    14    1
   14    14    15    1
   15    14    16    1
   16    14    17    1
   17    17    18    1
   18    17    19    1
   19    17    20    1
   20    20    21    1
   21    20    22    1
   22    22    23    1
   23    22    24    1
   24    22    25    1
   25    20    26    1
   26    26    27    1
   27    26    28    1
   28    26    29    1
@<TRIPOS>SUBSTRUCTURE
       1 MOL1            1 RESIDUE      1      MOL     
@<SCITEGIC>MOL_PROPERTY
VM2 Rank
SciTegic.value.IntegerValue
81

@<SCITEGIC>MOL_PROPERTY
Conf_Id
SciTegic.value.IntegerValue
1340

@<SCITEGIC>MOL_PROPERTY
Probability
SciTegic.value.DoubleValue
0.04

@<SCITEGIC>MOL_PROPERTY
Sum Probability
SciTegic.value.DoubleValue
99.03

@<SCITEGIC>MOL_PROPERTY
Delta G
SciTegic.value.DoubleValue
3.373

@<SCITEGIC>MOL_PROPERTY
G
SciTegic.value.DoubleValue
37.075

@<SCITEGIC>MOL_PROPERTY
E
SciTegic.value.DoubleValue
-0.654

@<SCITEGIC>MOL_PROPERTY
-TS
SciTegic.value.DoubleValue
37.728

@<SCITEGIC>MOL_PROPERTY
U+W
SciTegic.value.DoubleValue
-24.798

@<SCITEGIC>MOL_PROPERTY
U
SciTegic.value.DoubleValue
27.548

@<SCITEGIC>MOL_PROPERTY
W
SciTegic.value.DoubleValue
-52.345

@<SCITEGIC>MOL_PROPERTY
W(PB)
SciTegic.value.DoubleValue
-54.804

@<SCITEGIC>MOL_PROPERTY
W(SA)
SciTegic.value.DoubleValue
2.459

@<SCITEGIC>MOL_PROPERTY
Valence
SciTegic.value.DoubleValue
6.159

@<SCITEGIC>MOL_PROPERTY
Coulomb
SciTegic.value.DoubleValue
20.244

@<SCITEGIC>MOL_PROPERTY
VdW
SciTegic.value.DoubleValue
1.144

@<SCITEGIC>MOL_PROPERTY
VdW6
SciTegic.value.DoubleValue
-9.545

@<SCITEGIC>MOL_PROPERTY
VdW12
SciTegic.value.DoubleValue
10.689

@<SCITEGIC>MOL_PROPERTY
Bond
SciTegic.value.DoubleValue
0.271

@<SCITEGIC>MOL_PROPERTY
Angle
SciTegic.value.DoubleValue
1.675

@<SCITEGIC>MOL_PROPERTY
Pdih
SciTegic.value.DoubleValue
4.213

@<SCITEGIC>MOL_PROPERTY
Idih
SciTegic.value.DoubleValue
0.000

@<SCITEGIC>MOL_PROPERTY
Tether
SciTegic.value.DoubleValue
0.000

@<TRIPOS>MOLECULE
guest-s15_vm2.mol2 : vm2 ligand conformer 82
          29          28           1
SMALL
USER_CHARGES
 
@<TRIPOS>ATOM
       1    C1      21.071330   19.445337   19.778538 C.3        1 MOL1        -0.2426
       2    H1      20.567200   18.946199   18.940721 H          1 MOL1         0.0959
       3    H2      21.017260   20.529351   19.613499 H          1 MOL1         0.0959
       4    H3      22.129294   19.153331   19.757042 H          1 MOL1         0.0959
       5    C2      20.426270   19.057031   21.125754 C.3        1 MOL1        -0.1410
       6    H4      20.981379   19.545581   21.937390 H          1 MOL1         0.0948
       7    H5      20.519215   17.972311   21.274814 H          1 MOL1         0.0948
       8    C3      18.937322   19.467930   21.184201 C.3        1 MOL1        -0.1435
       9    H6      18.857899   20.561546   21.114049 H          1 MOL1         0.0948
      10    H7      18.422215   19.067395   20.300163 H          1 MOL1         0.0948
      11    C4      18.185359   18.977326   22.448437 C.3        1 MOL1        -0.1435
      12    H8      18.167423   17.879054   22.475275 H          1 MOL1         0.0948
      13    H9      17.135870   19.287367   22.348951 H          1 MOL1         0.0948
      14    C5      18.730940   19.540716   23.786449 C.3        1 MOL1        -0.1435
      15    H10     19.205483   20.517336   23.617722 H          1 MOL1         0.0948
      16    H11     17.877225   19.727100   24.451566 H          1 MOL1         0.0948
      17    C6      19.714444   18.577578   24.500866 C.3        1 MOL1        -0.1500
      18    H12     20.518454   18.291178   23.813648 H          1 MOL1         0.0948
      19    H13     19.191873   17.648934   24.766192 H          1 MOL1         0.0948
      20    C7      20.345161   19.195304   25.767470 C.3        1 MOL1         0.1162
      21    H14     20.837624   20.130535   25.483803 H          1 MOL1         0.0910
      22    C8      21.406237   18.249482   26.352145 C.3        1 MOL1        -0.2491
      23    H15     21.883912   18.698216   27.231845 H          1 MOL1         0.0959
      24    H16     20.961884   17.293018   26.654919 H          1 MOL1         0.0959
      25    H17     22.192879   18.042942   25.615732 H          1 MOL1         0.0959
      26    N1      19.318937   19.545295   26.810141 N.4        1 MOL1        -0.5987
      27    H18     19.752768   19.972129   27.633689 H          1 MOL1         0.3605
      28    H19     18.810780   18.715147   27.126598 H          1 MOL1         0.3605
      29    H20     18.629824   20.209752   26.447739 H          1 MOL1         0.3605
@<TRIPOS>BOND
    1     1     2    1
    2     1     3    1
    3     1     4    1
    4     1     5    1
    5     5     6    1
    6     5     7    1
    7     5     8    1
    8     8     9    1
    9     8    10    1
   10     8    11    1
   11    11    12    1
   12    11    13    1
   13    11    14    1
   14    14    15    1
   15    14    16    1
   16    14    17    1
   17    17    18    1
   18    17    19    1
   19    17    20    1
   20    20    21    1
   21    20    22    1
   22    22    23    1
   23    22    24    1
   24    22    25    1
   25    20    26    1
   26    26    27    1
   27    26    28    1
   28    26    29    1
@<TRIPOS>SUBSTRUCTURE
       1 MOL1            1 RESIDUE      1      MOL     
@<SCITEGIC>MOL_PROPERTY
VM2 Rank
SciTegic.value.IntegerValue
82

@<SCITEGIC>MOL_PROPERTY
Conf_Id
SciTegic.value.IntegerValue
496

@<SCITEGIC>MOL_PROPERTY
Probability
SciTegic.value.DoubleValue
0.04

@<SCITEGIC>MOL_PROPERTY
Sum Probability
SciTegic.value.DoubleValue
99.07

@<SCITEGIC>MOL_PROPERTY
Delta G
SciTegic.value.DoubleValue
3.398

@<SCITEGIC>MOL_PROPERTY
G
SciTegic.value.DoubleValue
37.099

@<SCITEGIC>MOL_PROPERTY
E
SciTegic.value.DoubleValue
-0.693

@<SCITEGIC>MOL_PROPERTY
-TS
SciTegic.value.DoubleValue
37.792

@<SCITEGIC>MOL_PROPERTY
U+W
SciTegic.value.DoubleValue
-24.838

@<SCITEGIC>MOL_PROPERTY
U
SciTegic.value.DoubleValue
27.471

@<SCITEGIC>MOL_PROPERTY
W
SciTegic.value.DoubleValue
-52.309

@<SCITEGIC>MOL_PROPERTY
W(PB)
SciTegic.value.DoubleValue
-54.792

@<SCITEGIC>MOL_PROPERTY
W(SA)
SciTegic.value.DoubleValue
2.483

@<SCITEGIC>MOL_PROPERTY
Valence
SciTegic.value.DoubleValue
6.231

@<SCITEGIC>MOL_PROPERTY
Coulomb
SciTegic.value.DoubleValue
20.131

@<SCITEGIC>MOL_PROPERTY
VdW
SciTegic.value.DoubleValue
1.110

@<SCITEGIC>MOL_PROPERTY
VdW6
SciTegic.value.DoubleValue
-9.661

@<SCITEGIC>MOL_PROPERTY
VdW12
SciTegic.value.DoubleValue
10.770

@<SCITEGIC>MOL_PROPERTY
Bond
SciTegic.value.DoubleValue
0.280

@<SCITEGIC>MOL_PROPERTY
Angle
SciTegic.value.DoubleValue
1.592

@<SCITEGIC>MOL_PROPERTY
Pdih
SciTegic.value.DoubleValue
4.359

@<SCITEGIC>MOL_PROPERTY
Idih
SciTegic.value.DoubleValue
0.000

@<SCITEGIC>MOL_PROPERTY
Tether
SciTegic.value.DoubleValue
0.000

@<TRIPOS>MOLECULE
guest-s15_vm2.mol2 : vm2 ligand conformer 83
          29          28           1
SMALL
USER_CHARGES
 
@<TRIPOS>ATOM
       1    C1      18.370492   20.094888   20.787130 C.3        1 MOL1        -0.2426
       2    H1      17.556138   20.293187   20.078352 H          1 MOL1         0.0959
       3    H2      17.945526   19.525080   21.622582 H          1 MOL1         0.0959
       4    H3      18.728179   21.060705   21.166687 H          1 MOL1         0.0959
       5    C2      19.507963   19.311888   20.096046 C.3        1 MOL1        -0.1410
       6    H4      19.785649   19.836960   19.171434 H          1 MOL1         0.0948
       7    H5      19.134888   18.325939   19.785543 H          1 MOL1         0.0948
       8    C3      20.781193   19.136034   20.962451 C.3        1 MOL1        -0.1435
       9    H6      21.527940   18.612772   20.349324 H          1 MOL1         0.0948
      10    H7      21.220826   20.116611   21.191083 H          1 MOL1         0.0948
      11    C4      20.571125   18.322434   22.266013 C.3        1 MOL1        -0.1435
      12    H8      21.473794   17.723810   22.450988 H          1 MOL1         0.0948
      13    H9      19.751606   17.602928   22.132391 H          1 MOL1         0.0948
      14    C5      20.315681   19.208281   23.509843 C.3        1 MOL1        -0.1435
      15    H10     21.176411   19.873653   23.664349 H          1 MOL1         0.0948
      16    H11     19.447253   19.853643   23.338335 H          1 MOL1         0.0948
      17    C6      20.091938   18.355636   24.782279 C.3        1 MOL1        -0.1500
      18    H12     20.951203   17.684887   24.915793 H          1 MOL1         0.0948
      19    H13     19.210965   17.713766   24.648644 H          1 MOL1         0.0948
      20    C7      19.923846   19.209038   26.057998 C.3        1 MOL1         0.1162
      21    H14     20.800420   19.856958   26.155259 H          1 MOL1         0.0910
      22    C8      19.851258   18.305646   27.299320 C.3        1 MOL1        -0.2491
      23    H15     18.984433   17.634601   27.251819 H          1 MOL1         0.0959
      24    H16     20.755338   17.690262   27.387063 H          1 MOL1         0.0959
      25    H17     19.768421   18.907080   28.213004 H          1 MOL1         0.0959
      26    N1      18.722503   20.112155   25.992919 N.4        1 MOL1        -0.5987
      27    H18     17.856779   19.574492   25.898113 H          1 MOL1         0.3605
      28    H19     18.778497   20.751659   25.195741 H          1 MOL1         0.3605
      29    H20     18.638034   20.683205   26.838776 H          1 MOL1         0.3605
@<TRIPOS>BOND
    1     1     2    1
    2     1     3    1
    3     1     4    1
    4     1     5    1
    5     5     6    1
    6     5     7    1
    7     5     8    1
    8     8     9    1
    9     8    10    1
   10     8    11    1
   11    11    12    1
   12    11    13    1
   13    11    14    1
   14    14    15    1
   15    14    16    1
   16    14    17    1
   17    17    18    1
   18    17    19    1
   19    17    20    1
   20    20    21    1
   21    20    22    1
   22    22    23    1
   23    22    24    1
   24    22    25    1
   25    20    26    1
   26    26    27    1
   27    26    28    1
   28    26    29    1
@<TRIPOS>SUBSTRUCTURE
       1 MOL1            1 RESIDUE      1      MOL     
@<SCITEGIC>MOL_PROPERTY
VM2 Rank
SciTegic.value.IntegerValue
83

@<SCITEGIC>MOL_PROPERTY
Conf_Id
SciTegic.value.IntegerValue
1291

@<SCITEGIC>MOL_PROPERTY
Probability
SciTegic.value.DoubleValue
0.03

@<SCITEGIC>MOL_PROPERTY
Sum Probability
SciTegic.value.DoubleValue
99.10

@<SCITEGIC>MOL_PROPERTY
Delta G
SciTegic.value.DoubleValue
3.420

@<SCITEGIC>MOL_PROPERTY
G
SciTegic.value.DoubleValue
37.122

@<SCITEGIC>MOL_PROPERTY
E
SciTegic.value.DoubleValue
-0.626

@<SCITEGIC>MOL_PROPERTY
-TS
SciTegic.value.DoubleValue
37.749

@<SCITEGIC>MOL_PROPERTY
U+W
SciTegic.value.DoubleValue
-24.771

@<SCITEGIC>MOL_PROPERTY
U
SciTegic.value.DoubleValue
27.668

@<SCITEGIC>MOL_PROPERTY
W
SciTegic.value.DoubleValue
-52.439

@<SCITEGIC>MOL_PROPERTY
W(PB)
SciTegic.value.DoubleValue
-54.941

@<SCITEGIC>MOL_PROPERTY
W(SA)
SciTegic.value.DoubleValue
2.501

@<SCITEGIC>MOL_PROPERTY
Valence
SciTegic.value.DoubleValue
6.132

@<SCITEGIC>MOL_PROPERTY
Coulomb
SciTegic.value.DoubleValue
20.412

@<SCITEGIC>MOL_PROPERTY
VdW
SciTegic.value.DoubleValue
1.124

@<SCITEGIC>MOL_PROPERTY
VdW6
SciTegic.value.DoubleValue
-9.582

@<SCITEGIC>MOL_PROPERTY
VdW12
SciTegic.value.DoubleValue
10.706

@<SCITEGIC>MOL_PROPERTY
Bond
SciTegic.value.DoubleValue
0.273

@<SCITEGIC>MOL_PROPERTY
Angle
SciTegic.value.DoubleValue
1.615

@<SCITEGIC>MOL_PROPERTY
Pdih
SciTegic.value.DoubleValue
4.244

@<SCITEGIC>MOL_PROPERTY
Idih
SciTegic.value.DoubleValue
0.000

@<SCITEGIC>MOL_PROPERTY
Tether
SciTegic.value.DoubleValue
0.000

@<TRIPOS>MOLECULE
guest-s15_vm2.mol2 : vm2 ligand conformer 84
          29          28           1
SMALL
USER_CHARGES
 
@<TRIPOS>ATOM
       1    C1      19.828891   20.917583   20.151175 C.3        1 MOL1        -0.2426
       2    H1      19.103081   21.547544   20.681822 H          1 MOL1         0.0959
       3    H2      20.836962   21.277498   20.395091 H          1 MOL1         0.0959
       4    H3      19.672481   21.057669   19.073702 H          1 MOL1         0.0959
       5    C2      19.661749   19.432733   20.537411 C.3        1 MOL1        -0.1410
       6    H4      20.376708   18.825168   19.965080 H          1 MOL1         0.0948
       7    H5      18.656363   19.092363   20.252311 H          1 MOL1         0.0948
       8    C3      19.878479   19.208424   22.050175 C.3        1 MOL1        -0.1435
       9    H6      20.886864   19.543895   22.329144 H          1 MOL1         0.0948
      10    H7      19.161464   19.828308   22.603055 H          1 MOL1         0.0948
      11    C4      19.694963   17.724053   22.443001 C.3        1 MOL1        -0.1435
      12    H8      20.290363   17.099428   21.762748 H          1 MOL1         0.0948
      13    H9      18.647456   17.432226   22.285398 H          1 MOL1         0.0948
      14    C5      20.113870   17.383688   23.896830 C.3        1 MOL1        -0.1435
      15    H10     19.978554   16.301562   24.030870 H          1 MOL1         0.0948
      16    H11     21.188797   17.559185   24.025834 H          1 MOL1         0.0948
      17    C6      19.293559   18.104981   25.001546 C.3        1 MOL1        -0.1500
      18    H12     19.308428   17.489476   25.910851 H          1 MOL1         0.0948
      19    H13     18.242236   18.145906   24.687641 H          1 MOL1         0.0948
      20    C7      19.779839   19.528082   25.369656 C.3        1 MOL1         0.1162
      21    H14     19.900218   20.111177   24.454242 H          1 MOL1         0.0910
      22    C8      21.130753   19.504542   26.107513 C.3        1 MOL1        -0.2491
      23    H15     21.074284   18.898020   27.019995 H          1 MOL1         0.0959
      24    H16     21.927664   19.097927   25.475059 H          1 MOL1         0.0959
      25    H17     21.431231   20.519993   26.393724 H          1 MOL1         0.0959
      26    N1      18.753897   20.251913   26.196693 N.4        1 MOL1        -0.5987
      27    H18     17.856025   20.320626   25.708944 H          1 MOL1         0.3605
      28    H19     19.055443   21.205565   26.416518 H          1 MOL1         0.3605
      29    H20     18.585173   19.772842   27.085423 H          1 MOL1         0.3605
@<TRIPOS>BOND
    1     1     2    1
    2     1     3    1
    3     1     4    1
    4     1     5    1
    5     5     6    1
    6     5     7    1
    7     5     8    1
    8     8     9    1
    9     8    10    1
   10     8    11    1
   11    11    12    1
   12    11    13    1
   13    11    14    1
   14    14    15    1
   15    14    16    1
   16    14    17    1
   17    17    18    1
   18    17    19    1
   19    17    20    1
   20    20    21    1
   21    20    22    1
   22    22    23    1
   23    22    24    1
   24    22    25    1
   25    20    26    1
   26    26    27    1
   27    26    28    1
   28    26    29    1
@<TRIPOS>SUBSTRUCTURE
       1 MOL1            1 RESIDUE      1      MOL     
@<SCITEGIC>MOL_PROPERTY
VM2 Rank
SciTegic.value.IntegerValue
84

@<SCITEGIC>MOL_PROPERTY
Conf_Id
SciTegic.value.IntegerValue
287

@<SCITEGIC>MOL_PROPERTY
Probability
SciTegic.value.DoubleValue
0.03

@<SCITEGIC>MOL_PROPERTY
Sum Probability
SciTegic.value.DoubleValue
99.13

@<SCITEGIC>MOL_PROPERTY
Delta G
SciTegic.value.DoubleValue
3.442

@<SCITEGIC>MOL_PROPERTY
G
SciTegic.value.DoubleValue
37.144

@<SCITEGIC>MOL_PROPERTY
E
SciTegic.value.DoubleValue
-0.497

@<SCITEGIC>MOL_PROPERTY
-TS
SciTegic.value.DoubleValue
37.641

@<SCITEGIC>MOL_PROPERTY
U+W
SciTegic.value.DoubleValue
-24.641

@<SCITEGIC>MOL_PROPERTY
U
SciTegic.value.DoubleValue
27.991

@<SCITEGIC>MOL_PROPERTY
W
SciTegic.value.DoubleValue
-52.632

@<SCITEGIC>MOL_PROPERTY
W(PB)
SciTegic.value.DoubleValue
-55.124

@<SCITEGIC>MOL_PROPERTY
W(SA)
SciTegic.value.DoubleValue
2.492

@<SCITEGIC>MOL_PROPERTY
Valence
SciTegic.value.DoubleValue
6.342

@<SCITEGIC>MOL_PROPERTY
Coulomb
SciTegic.value.DoubleValue
20.686

@<SCITEGIC>MOL_PROPERTY
VdW
SciTegic.value.DoubleValue
0.963

@<SCITEGIC>MOL_PROPERTY
VdW6
SciTegic.value.DoubleValue
-10.031

@<SCITEGIC>MOL_PROPERTY
VdW12
SciTegic.value.DoubleValue
10.993

@<SCITEGIC>MOL_PROPERTY
Bond
SciTegic.value.DoubleValue
0.289

@<SCITEGIC>MOL_PROPERTY
Angle
SciTegic.value.DoubleValue
2.141

@<SCITEGIC>MOL_PROPERTY
Pdih
SciTegic.value.DoubleValue
3.912

@<SCITEGIC>MOL_PROPERTY
Idih
SciTegic.value.DoubleValue
0.000

@<SCITEGIC>MOL_PROPERTY
Tether
SciTegic.value.DoubleValue
0.000

@<TRIPOS>MOLECULE
guest-s15_vm2.mol2 : vm2 ligand conformer 85
          29          28           1
SMALL
USER_CHARGES
 
@<TRIPOS>ATOM
       1    C1      20.772351   18.336603   19.823405 C.3        1 MOL1        -0.2426
       2    H1      20.581196   18.969097   18.946679 H          1 MOL1         0.0959
       3    H2      21.773930   18.574384   20.204851 H          1 MOL1         0.0959
       4    H3      20.778239   17.290841   19.489680 H          1 MOL1         0.0959
       5    C2      19.699022   18.555745   20.910360 C.3        1 MOL1        -0.1410
       6    H4      19.894872   17.879006   21.750813 H          1 MOL1         0.0948
       7    H5      18.715000   18.276426   20.508590 H          1 MOL1         0.0948
       8    C3      19.663586   20.027581   21.388018 C.3        1 MOL1        -0.1435
       9    H6      20.659148   20.345766   21.726657 H          1 MOL1         0.0948
      10    H7      19.421831   20.660869   20.523195 H          1 MOL1         0.0948
      11    C4      18.612634   20.289759   22.498132 C.3        1 MOL1        -0.1435
      12    H8      17.780764   19.577223   22.411595 H          1 MOL1         0.0948
      13    H9      18.171321   21.280853   22.323731 H          1 MOL1         0.0948
      14    C5      19.175777   20.278019   23.942890 C.3        1 MOL1        -0.1435
      15    H10     19.928963   21.071449   24.046023 H          1 MOL1         0.0948
      16    H11     18.356897   20.542912   24.624277 H          1 MOL1         0.0948
      17    C6      19.794516   18.924817   24.374337 C.3        1 MOL1        -0.1500
      18    H12     20.661499   18.711056   23.737150 H          1 MOL1         0.0948
      19    H13     19.070631   18.114967   24.213843 H          1 MOL1         0.0948
      20    C7      20.264653   18.917534   25.845177 C.3        1 MOL1         0.1162
      21    H14     20.950155   19.758106   25.990680 H          1 MOL1         0.0910
      22    C8      21.022617   17.617054   26.156417 C.3        1 MOL1        -0.2491
      23    H15     20.376641   16.739917   26.024885 H          1 MOL1         0.0959
      24    H16     21.891140   17.503911   25.495628 H          1 MOL1         0.0959
      25    H17     21.389692   17.619415   27.190177 H          1 MOL1         0.0959
      26    N1      19.130843   19.108887   26.815265 N.4        1 MOL1        -0.5987
      27    H18     18.643218   19.993671   26.651259 H          1 MOL1         0.3605
      28    H19     19.464542   19.118069   27.783347 H          1 MOL1         0.3605
      29    H20     18.441116   18.356928   26.735686 H          1 MOL1         0.3605
@<TRIPOS>BOND
    1     1     2    1
    2     1     3    1
    3     1     4    1
    4     1     5    1
    5     5     6    1
    6     5     7    1
    7     5     8    1
    8     8     9    1
    9     8    10    1
   10     8    11    1
   11    11    12    1
   12    11    13    1
   13    11    14    1
   14    14    15    1
   15    14    16    1
   16    14    17    1
   17    17    18    1
   18    17    19    1
   19    17    20    1
   20    20    21    1
   21    20    22    1
   22    22    23    1
   23    22    24    1
   24    22    25    1
   25    20    26    1
   26    26    27    1
   27    26    28    1
   28    26    29    1
@<TRIPOS>SUBSTRUCTURE
       1 MOL1            1 RESIDUE      1      MOL     
@<SCITEGIC>MOL_PROPERTY
VM2 Rank
SciTegic.value.IntegerValue
85

@<SCITEGIC>MOL_PROPERTY
Conf_Id
SciTegic.value.IntegerValue
282

@<SCITEGIC>MOL_PROPERTY
Probability
SciTegic.value.DoubleValue
0.03

@<SCITEGIC>MOL_PROPERTY
Sum Probability
SciTegic.value.DoubleValue
99.17

@<SCITEGIC>MOL_PROPERTY
Delta G
SciTegic.value.DoubleValue
3.448

@<SCITEGIC>MOL_PROPERTY
G
SciTegic.value.DoubleValue
37.150

@<SCITEGIC>MOL_PROPERTY
E
SciTegic.value.DoubleValue
-0.619

@<SCITEGIC>MOL_PROPERTY
-TS
SciTegic.value.DoubleValue
37.769

@<SCITEGIC>MOL_PROPERTY
U+W
SciTegic.value.DoubleValue
-24.763

@<SCITEGIC>MOL_PROPERTY
U
SciTegic.value.DoubleValue
27.456

@<SCITEGIC>MOL_PROPERTY
W
SciTegic.value.DoubleValue
-52.219

@<SCITEGIC>MOL_PROPERTY
W(PB)
SciTegic.value.DoubleValue
-54.678

@<SCITEGIC>MOL_PROPERTY
W(SA)
SciTegic.value.DoubleValue
2.459

@<SCITEGIC>MOL_PROPERTY
Valence
SciTegic.value.DoubleValue
6.249

@<SCITEGIC>MOL_PROPERTY
Coulomb
SciTegic.value.DoubleValue
20.070

@<SCITEGIC>MOL_PROPERTY
VdW
SciTegic.value.DoubleValue
1.137

@<SCITEGIC>MOL_PROPERTY
VdW6
SciTegic.value.DoubleValue
-9.668

@<SCITEGIC>MOL_PROPERTY
VdW12
SciTegic.value.DoubleValue
10.805

@<SCITEGIC>MOL_PROPERTY
Bond
SciTegic.value.DoubleValue
0.280

@<SCITEGIC>MOL_PROPERTY
Angle
SciTegic.value.DoubleValue
1.673

@<SCITEGIC>MOL_PROPERTY
Pdih
SciTegic.value.DoubleValue
4.296

@<SCITEGIC>MOL_PROPERTY
Idih
SciTegic.value.DoubleValue
0.000

@<SCITEGIC>MOL_PROPERTY
Tether
SciTegic.value.DoubleValue
0.000

@<TRIPOS>MOLECULE
guest-s15_vm2.mol2 : vm2 ligand conformer 86
          29          28           1
SMALL
USER_CHARGES
 
@<TRIPOS>ATOM
       1    C1      19.200673   20.841945   20.638809 C.3        1 MOL1        -0.2426
       2    H1      19.296484   21.088630   21.701765 H          1 MOL1         0.0959
       3    H2      20.055588   21.284754   20.111461 H          1 MOL1         0.0959
       4    H3      18.290680   21.328767   20.264899 H          1 MOL1         0.0959
       5    C2      19.135319   19.315672   20.398049 C.3        1 MOL1        -0.1410
       6    H4      19.019790   19.148400   19.317982 H          1 MOL1         0.0948
       7    H5      18.236016   18.892718   20.866999 H          1 MOL1         0.0948
       8    C3      20.400871   18.561873   20.881817 C.3        1 MOL1        -0.1435
       9    H6      20.596879   17.738508   20.181095 H          1 MOL1         0.0948
      10    H7      21.280370   19.217528   20.820636 H          1 MOL1         0.0948
      11    C4      20.291075   17.948622   22.301694 C.3        1 MOL1        -0.1435
      12    H8      21.213203   17.386618   22.504342 H          1 MOL1         0.0948
      13    H9      19.474868   17.213258   22.319071 H          1 MOL1         0.0948
      14    C5      20.073295   18.984465   23.428768 C.3        1 MOL1        -0.1435
      15    H10     20.834704   19.773247   23.355076 H          1 MOL1         0.0948
      16    H11     19.094396   19.460915   23.295776 H          1 MOL1         0.0948
      17    C6      20.141479   18.329823   24.829959 C.3        1 MOL1        -0.1500
      18    H12     21.104741   17.812807   24.934148 H          1 MOL1         0.0948
      19    H13     19.361888   17.561546   24.919289 H          1 MOL1         0.0948
      20    C7      19.999194   19.350944   25.979376 C.3        1 MOL1         0.1162
      21    H14     20.768610   20.118872   25.853162 H          1 MOL1         0.0910
      22    C8      20.221748   18.663083   27.335694 C.3        1 MOL1        -0.2491
      23    H15     20.158030   19.389948   28.154848 H          1 MOL1         0.0959
      24    H16     19.471728   17.881952   27.512469 H          1 MOL1         0.0959
      25    H17     21.215039   18.199153   27.379261 H          1 MOL1         0.0959
      26    N1      18.672346   20.059572   25.959833 N.4        1 MOL1        -0.5987
      27    H18     18.528822   20.560139   25.078724 H          1 MOL1         0.3605
      28    H19     18.603824   20.745575   26.717077 H          1 MOL1         0.3605
      29    H20     17.896669   19.401191   26.071412 H          1 MOL1         0.3605
@<TRIPOS>BOND
    1     1     2    1
    2     1     3    1
    3     1     4    1
    4     1     5    1
    5     5     6    1
    6     5     7    1
    7     5     8    1
    8     8     9    1
    9     8    10    1
   10     8    11    1
   11    11    12    1
   12    11    13    1
   13    11    14    1
   14    14    15    1
   15    14    16    1
   16    14    17    1
   17    17    18    1
   18    17    19    1
   19    17    20    1
   20    20    21    1
   21    20    22    1
   22    22    23    1
   23    22    24    1
   24    22    25    1
   25    20    26    1
   26    26    27    1
   27    26    28    1
   28    26    29    1
@<TRIPOS>SUBSTRUCTURE
       1 MOL1            1 RESIDUE      1      MOL     
@<SCITEGIC>MOL_PROPERTY
VM2 Rank
SciTegic.value.IntegerValue
86

@<SCITEGIC>MOL_PROPERTY
Conf_Id
SciTegic.value.IntegerValue
1337

@<SCITEGIC>MOL_PROPERTY
Probability
SciTegic.value.DoubleValue
0.03

@<SCITEGIC>MOL_PROPERTY
Sum Probability
SciTegic.value.DoubleValue
99.20

@<SCITEGIC>MOL_PROPERTY
Delta G
SciTegic.value.DoubleValue
3.449

@<SCITEGIC>MOL_PROPERTY
G
SciTegic.value.DoubleValue
37.151

@<SCITEGIC>MOL_PROPERTY
E
SciTegic.value.DoubleValue
-0.583

@<SCITEGIC>MOL_PROPERTY
-TS
SciTegic.value.DoubleValue
37.734

@<SCITEGIC>MOL_PROPERTY
U+W
SciTegic.value.DoubleValue
-24.728

@<SCITEGIC>MOL_PROPERTY
U
SciTegic.value.DoubleValue
27.696

@<SCITEGIC>MOL_PROPERTY
W
SciTegic.value.DoubleValue
-52.423

@<SCITEGIC>MOL_PROPERTY
W(PB)
SciTegic.value.DoubleValue
-54.885

@<SCITEGIC>MOL_PROPERTY
W(SA)
SciTegic.value.DoubleValue
2.462

@<SCITEGIC>MOL_PROPERTY
Valence
SciTegic.value.DoubleValue
6.158

@<SCITEGIC>MOL_PROPERTY
Coulomb
SciTegic.value.DoubleValue
20.386

@<SCITEGIC>MOL_PROPERTY
VdW
SciTegic.value.DoubleValue
1.152

@<SCITEGIC>MOL_PROPERTY
VdW6
SciTegic.value.DoubleValue
-9.567

@<SCITEGIC>MOL_PROPERTY
VdW12
SciTegic.value.DoubleValue
10.719

@<SCITEGIC>MOL_PROPERTY
Bond
SciTegic.value.DoubleValue
0.273

@<SCITEGIC>MOL_PROPERTY
Angle
SciTegic.value.DoubleValue
1.662

@<SCITEGIC>MOL_PROPERTY
Pdih
SciTegic.value.DoubleValue
4.223

@<SCITEGIC>MOL_PROPERTY
Idih
SciTegic.value.DoubleValue
0.000

@<SCITEGIC>MOL_PROPERTY
Tether
SciTegic.value.DoubleValue
0.000

@<TRIPOS>MOLECULE
guest-s15_vm2.mol2 : vm2 ligand conformer 87
          29          28           1
SMALL
USER_CHARGES
 
@<TRIPOS>ATOM
       1    C1      18.257848   19.144384   19.997778 C.3        1 MOL1        -0.2426
       2    H1      18.012203   20.206484   19.867973 H          1 MOL1         0.0959
       3    H2      18.791624   18.804585   19.100651 H          1 MOL1         0.0959
       4    H3      17.315163   18.585443   20.060531 H          1 MOL1         0.0959
       5    C2      19.107775   18.923271   21.266870 C.3        1 MOL1        -0.1410
       6    H4      19.315447   17.850623   21.384343 H          1 MOL1         0.0948
       7    H5      18.524616   19.239734   22.141407 H          1 MOL1         0.0948
       8    C3      20.436226   19.711008   21.207647 C.3        1 MOL1        -0.1435
       9    H6      20.944822   19.481362   20.261139 H          1 MOL1         0.0948
      10    H7      20.220427   20.788075   21.184242 H          1 MOL1         0.0948
      11    C4      21.415819   19.406714   22.370466 C.3        1 MOL1        -0.1435
      12    H8      22.329937   19.989793   22.192063 H          1 MOL1         0.0948
      13    H9      21.726559   18.353472   22.336000 H          1 MOL1         0.0948
      14    C5      20.881948   19.766807   23.781493 C.3        1 MOL1        -0.1435
      15    H10     21.722812   20.132848   24.386996 H          1 MOL1         0.0948
      16    H11     20.174499   20.603023   23.706530 H          1 MOL1         0.0948
      17    C6      20.244523   18.562968   24.523558 C.3        1 MOL1        -0.1500
      18    H12     20.986561   17.755849   24.585416 H          1 MOL1         0.0948
      19    H13     19.398144   18.159926   23.956314 H          1 MOL1         0.0948
      20    C7      19.780547   18.917719   25.952623 C.3        1 MOL1         0.1162
      21    H14     20.633515   19.334705   26.496866 H          1 MOL1         0.0910
      22    C8      19.307514   17.654974   26.690237 C.3        1 MOL1        -0.2491
      23    H15     19.010082   17.894534   27.718611 H          1 MOL1         0.0959
      24    H16     18.448504   17.197402   26.183609 H          1 MOL1         0.0959
      25    H17     20.110819   16.909440   26.741565 H          1 MOL1         0.0959
      26    N1      18.703800   19.968156   25.963327 N.4        1 MOL1        -0.5987
      27    H18     18.424744   20.207280   26.919171 H          1 MOL1         0.3605
      28    H19     17.866006   19.648631   25.470036 H          1 MOL1         0.3605
      29    H20     19.019023   20.830749   25.511473 H          1 MOL1         0.3605
@<TRIPOS>BOND
    1     1     2    1
    2     1     3    1
    3     1     4    1
    4     1     5    1
    5     5     6    1
    6     5     7    1
    7     5     8    1
    8     8     9    1
    9     8    10    1
   10     8    11    1
   11    11    12    1
   12    11    13    1
   13    11    14    1
   14    14    15    1
   15    14    16    1
   16    14    17    1
   17    17    18    1
   18    17    19    1
   19    17    20    1
   20    20    21    1
   21    20    22    1
   22    22    23    1
   23    22    24    1
   24    22    25    1
   25    20    26    1
   26    26    27    1
   27    26    28    1
   28    26    29    1
@<TRIPOS>SUBSTRUCTURE
       1 MOL1            1 RESIDUE      1      MOL     
@<SCITEGIC>MOL_PROPERTY
VM2 Rank
SciTegic.value.IntegerValue
87

@<SCITEGIC>MOL_PROPERTY
Conf_Id
SciTegic.value.IntegerValue
495

@<SCITEGIC>MOL_PROPERTY
Probability
SciTegic.value.DoubleValue
0.03

@<SCITEGIC>MOL_PROPERTY
Sum Probability
SciTegic.value.DoubleValue
99.23

@<SCITEGIC>MOL_PROPERTY
Delta G
SciTegic.value.DoubleValue
3.518

@<SCITEGIC>MOL_PROPERTY
G
SciTegic.value.DoubleValue
37.220

@<SCITEGIC>MOL_PROPERTY
E
SciTegic.value.DoubleValue
-0.530

@<SCITEGIC>MOL_PROPERTY
-TS
SciTegic.value.DoubleValue
37.750

@<SCITEGIC>MOL_PROPERTY
U+W
SciTegic.value.DoubleValue
-24.675

@<SCITEGIC>MOL_PROPERTY
U
SciTegic.value.DoubleValue
27.893

@<SCITEGIC>MOL_PROPERTY
W
SciTegic.value.DoubleValue
-52.567

@<SCITEGIC>MOL_PROPERTY
W(PB)
SciTegic.value.DoubleValue
-55.030

@<SCITEGIC>MOL_PROPERTY
W(SA)
SciTegic.value.DoubleValue
2.463

@<SCITEGIC>MOL_PROPERTY
Valence
SciTegic.value.DoubleValue
6.177

@<SCITEGIC>MOL_PROPERTY
Coulomb
SciTegic.value.DoubleValue
20.674

@<SCITEGIC>MOL_PROPERTY
VdW
SciTegic.value.DoubleValue
1.042

@<SCITEGIC>MOL_PROPERTY
VdW6
SciTegic.value.DoubleValue
-9.722

@<SCITEGIC>MOL_PROPERTY
VdW12
SciTegic.value.DoubleValue
10.764

@<SCITEGIC>MOL_PROPERTY
Bond
SciTegic.value.DoubleValue
0.282

@<SCITEGIC>MOL_PROPERTY
Angle
SciTegic.value.DoubleValue
1.681

@<SCITEGIC>MOL_PROPERTY
Pdih
SciTegic.value.DoubleValue
4.213

@<SCITEGIC>MOL_PROPERTY
Idih
SciTegic.value.DoubleValue
0.000

@<SCITEGIC>MOL_PROPERTY
Tether
SciTegic.value.DoubleValue
0.000

@<TRIPOS>MOLECULE
guest-s15_vm2.mol2 : vm2 ligand conformer 88
          29          28           1
SMALL
USER_CHARGES
 
@<TRIPOS>ATOM
       1    C1      20.128606   20.859203   20.080955 C.3        1 MOL1        -0.2426
       2    H1      19.109290   21.257789   19.995173 H          1 MOL1         0.0959
       3    H2      20.700142   21.521319   20.744426 H          1 MOL1         0.0959
       4    H3      20.590711   20.898681   19.086000 H          1 MOL1         0.0959
       5    C2      20.115030   19.412424   20.618181 C.3        1 MOL1        -0.1410
       6    H4      21.144534   19.030146   20.661778 H          1 MOL1         0.0948
       7    H5      19.566986   18.768393   19.916210 H          1 MOL1         0.0948
       8    C3      19.468362   19.328754   22.018355 C.3        1 MOL1        -0.1435
       9    H6      20.016627   19.988905   22.698834 H          1 MOL1         0.0948
      10    H7      18.438981   19.708909   21.964576 H          1 MOL1         0.0948
      11    C4      19.456031   17.876763   22.556299 C.3        1 MOL1        -0.1435
      12    H8      20.480561   17.485243   22.621328 H          1 MOL1         0.0948
      13    H9      18.938276   17.247064   21.819406 H          1 MOL1         0.0948
      14    C5      18.735028   17.709859   23.919615 C.3        1 MOL1        -0.1435
      15    H10     17.861480   18.372804   23.975649 H          1 MOL1         0.0948
      16    H11     18.327181   16.690262   23.958880 H          1 MOL1         0.0948
      17    C6      19.644331   17.886250   25.165971 C.3        1 MOL1        -0.1500
      18    H12     20.462179   17.155483   25.111508 H          1 MOL1         0.0948
      19    H13     19.065321   17.625237   26.061830 H          1 MOL1         0.0948
      20    C7      20.243661   19.296295   25.352821 C.3        1 MOL1         0.1162
      21    H14     20.850974   19.531960   24.475101 H          1 MOL1         0.0910
      22    C8      21.161310   19.327977   26.585171 C.3        1 MOL1        -0.2491
      23    H15     20.603288   19.101448   27.502351 H          1 MOL1         0.0959
      24    H16     21.970481   18.593536   26.487255 H          1 MOL1         0.0959
      25    H17     21.621758   20.316913   26.700826 H          1 MOL1         0.0959
      26    N1      19.183640   20.358475   25.456634 N.4        1 MOL1        -0.5987
      27    H18     19.595249   21.291574   25.549261 H          1 MOL1         0.3605
      28    H19     18.583572   20.205458   26.271586 H          1 MOL1         0.3605
      29    H20     18.583425   20.364108   24.627564 H          1 MOL1         0.3605
@<TRIPOS>BOND
    1     1     2    1
    2     1     3    1
    3     1     4    1
    4     1     5    1
    5     5     6    1
    6     5     7    1
    7     5     8    1
    8     8     9    1
    9     8    10    1
   10     8    11    1
   11    11    12    1
   12    11    13    1
   13    11    14    1
   14    14    15    1
   15    14    16    1
   16    14    17    1
   17    17    18    1
   18    17    19    1
   19    17    20    1
   20    20    21    1
   21    20    22    1
   22    22    23    1
   23    22    24    1
   24    22    25    1
   25    20    26    1
   26    26    27    1
   27    26    28    1
   28    26    29    1
@<TRIPOS>SUBSTRUCTURE
       1 MOL1            1 RESIDUE      1      MOL     
@<SCITEGIC>MOL_PROPERTY
VM2 Rank
SciTegic.value.IntegerValue
88

@<SCITEGIC>MOL_PROPERTY
Conf_Id
SciTegic.value.IntegerValue
261

@<SCITEGIC>MOL_PROPERTY
Probability
SciTegic.value.DoubleValue
0.03

@<SCITEGIC>MOL_PROPERTY
Sum Probability
SciTegic.value.DoubleValue
99.26

@<SCITEGIC>MOL_PROPERTY
Delta G
SciTegic.value.DoubleValue
3.547

@<SCITEGIC>MOL_PROPERTY
G
SciTegic.value.DoubleValue
37.248

@<SCITEGIC>MOL_PROPERTY
E
SciTegic.value.DoubleValue
-0.604

@<SCITEGIC>MOL_PROPERTY
-TS
SciTegic.value.DoubleValue
37.852

@<SCITEGIC>MOL_PROPERTY
U+W
SciTegic.value.DoubleValue
-24.748

@<SCITEGIC>MOL_PROPERTY
U
SciTegic.value.DoubleValue
27.636

@<SCITEGIC>MOL_PROPERTY
W
SciTegic.value.DoubleValue
-52.384

@<SCITEGIC>MOL_PROPERTY
W(PB)
SciTegic.value.DoubleValue
-54.895

@<SCITEGIC>MOL_PROPERTY
W(SA)
SciTegic.value.DoubleValue
2.510

@<SCITEGIC>MOL_PROPERTY
Valence
SciTegic.value.DoubleValue
5.823

@<SCITEGIC>MOL_PROPERTY
Coulomb
SciTegic.value.DoubleValue
21.132

@<SCITEGIC>MOL_PROPERTY
VdW
SciTegic.value.DoubleValue
0.682

@<SCITEGIC>MOL_PROPERTY
VdW6
SciTegic.value.DoubleValue
-10.106

@<SCITEGIC>MOL_PROPERTY
VdW12
SciTegic.value.DoubleValue
10.787

@<SCITEGIC>MOL_PROPERTY
Bond
SciTegic.value.DoubleValue
0.276

@<SCITEGIC>MOL_PROPERTY
Angle
SciTegic.value.DoubleValue
1.913

@<SCITEGIC>MOL_PROPERTY
Pdih
SciTegic.value.DoubleValue
3.634

@<SCITEGIC>MOL_PROPERTY
Idih
SciTegic.value.DoubleValue
0.000

@<SCITEGIC>MOL_PROPERTY
Tether
SciTegic.value.DoubleValue
0.000

@<TRIPOS>MOLECULE
guest-s15_vm2.mol2 : vm2 ligand conformer 89
          29          28           1
SMALL
USER_CHARGES
 
@<TRIPOS>ATOM
       1    C1      20.003412   19.913062   19.169100 C.3        1 MOL1        -0.2426
       2    H1      20.884765   20.389925   18.720937 H          1 MOL1         0.0959
       3    H2      19.894442   18.916871   18.720801 H          1 MOL1         0.0959
       4    H3      19.122717   20.509078   18.896400 H          1 MOL1         0.0959
       5    C2      20.156034   19.817257   20.701881 C.3        1 MOL1        -0.1410
       6    H4      20.292965   20.825145   21.117895 H          1 MOL1         0.0948
       7    H5      21.066908   19.249795   20.934954 H          1 MOL1         0.0948
       8    C3      18.926362   19.144388   21.356125 C.3        1 MOL1        -0.1435
       9    H6      18.019059   19.684929   21.052890 H          1 MOL1         0.0948
      10    H7      18.817052   18.120498   20.972753 H          1 MOL1         0.0948
      11    C4      18.988787   19.116172   22.902849 C.3        1 MOL1        -0.1435
      12    H8      18.040276   18.710479   23.281059 H          1 MOL1         0.0948
      13    H9      19.066303   20.147493   23.268127 H          1 MOL1         0.0948
      14    C5      20.163121   18.267682   23.451924 C.3        1 MOL1        -0.1435
      15    H10     20.197066   17.316864   22.902288 H          1 MOL1         0.0948
      16    H11     21.116264   18.773640   23.247790 H          1 MOL1         0.0948
      17    C6      20.076315   17.940656   24.966041 C.3        1 MOL1        -0.1500
      18    H12     20.886225   17.233443   25.189649 H          1 MOL1         0.0948
      19    H13     19.142967   17.405756   25.185965 H          1 MOL1         0.0948
      20    C7      20.218919   19.163159   25.903348 C.3        1 MOL1         0.1162
      21    H14     21.001168   19.815535   25.503324 H          1 MOL1         0.0910
      22    C8      20.642305   18.711140   27.310706 C.3        1 MOL1        -0.2491
      23    H15     21.602711   18.181618   27.278957 H          1 MOL1         0.0959
      24    H16     20.762699   19.574664   27.976529 H          1 MOL1         0.0959
      25    H17     19.895767   18.039469   27.752944 H          1 MOL1         0.0959
      26    N1      18.960744   19.982483   25.992026 N.4        1 MOL1        -0.5987
      27    H18     19.092676   20.806961   26.584965 H          1 MOL1         0.3605
      28    H19     18.191006   19.438505   26.390911 H          1 MOL1         0.3605
      29    H20     18.662197   20.309121   25.070310 H          1 MOL1         0.3605
@<TRIPOS>BOND
    1     1     2    1
    2     1     3    1
    3     1     4    1
    4     1     5    1
    5     5     6    1
    6     5     7    1
    7     5     8    1
    8     8     9    1
    9     8    10    1
   10     8    11    1
   11    11    12    1
   12    11    13    1
   13    11    14    1
   14    14    15    1
   15    14    16    1
   16    14    17    1
   17    17    18    1
   18    17    19    1
   19    17    20    1
   20    20    21    1
   21    20    22    1
   22    22    23    1
   23    22    24    1
   24    22    25    1
   25    20    26    1
   26    26    27    1
   27    26    28    1
   28    26    29    1
@<TRIPOS>SUBSTRUCTURE
       1 MOL1            1 RESIDUE      1      MOL     
@<SCITEGIC>MOL_PROPERTY
VM2 Rank
SciTegic.value.IntegerValue
89

@<SCITEGIC>MOL_PROPERTY
Conf_Id
SciTegic.value.IntegerValue
1015

@<SCITEGIC>MOL_PROPERTY
Probability
SciTegic.value.DoubleValue
0.03

@<SCITEGIC>MOL_PROPERTY
Sum Probability
SciTegic.value.DoubleValue
99.28

@<SCITEGIC>MOL_PROPERTY
Delta G
SciTegic.value.DoubleValue
3.595

@<SCITEGIC>MOL_PROPERTY
G
SciTegic.value.DoubleValue
37.297

@<SCITEGIC>MOL_PROPERTY
E
SciTegic.value.DoubleValue
-0.214

@<SCITEGIC>MOL_PROPERTY
-TS
SciTegic.value.DoubleValue
37.511

@<SCITEGIC>MOL_PROPERTY
U+W
SciTegic.value.DoubleValue
-24.358

@<SCITEGIC>MOL_PROPERTY
U
SciTegic.value.DoubleValue
27.700

@<SCITEGIC>MOL_PROPERTY
W
SciTegic.value.DoubleValue
-52.059

@<SCITEGIC>MOL_PROPERTY
W(PB)
SciTegic.value.DoubleValue
-54.562

@<SCITEGIC>MOL_PROPERTY
W(SA)
SciTegic.value.DoubleValue
2.503

@<SCITEGIC>MOL_PROPERTY
Valence
SciTegic.value.DoubleValue
5.425

@<SCITEGIC>MOL_PROPERTY
Coulomb
SciTegic.value.DoubleValue
21.143

@<SCITEGIC>MOL_PROPERTY
VdW
SciTegic.value.DoubleValue
1.133

@<SCITEGIC>MOL_PROPERTY
VdW6
SciTegic.value.DoubleValue
-9.721

@<SCITEGIC>MOL_PROPERTY
VdW12
SciTegic.value.DoubleValue
10.854

@<SCITEGIC>MOL_PROPERTY
Bond
SciTegic.value.DoubleValue
0.283

@<SCITEGIC>MOL_PROPERTY
Angle
SciTegic.value.DoubleValue
1.776

@<SCITEGIC>MOL_PROPERTY
Pdih
SciTegic.value.DoubleValue
3.367

@<SCITEGIC>MOL_PROPERTY
Idih
SciTegic.value.DoubleValue
0.000

@<SCITEGIC>MOL_PROPERTY
Tether
SciTegic.value.DoubleValue
0.000

@<TRIPOS>MOLECULE
guest-s15_vm2.mol2 : vm2 ligand conformer 90
          29          28           1
SMALL
USER_CHARGES
 
@<TRIPOS>ATOM
       1    C1      18.347871   19.712204   20.026367 C.3        1 MOL1        -0.2426
       2    H1      18.268201   18.685988   19.644827 H          1 MOL1         0.0959
       3    H2      17.735011   19.791064   20.932771 H          1 MOL1         0.0959
       4    H3      17.913426   20.384360   19.275107 H          1 MOL1         0.0959
       5    C2      19.821025   20.089567   20.301924 C.3        1 MOL1        -0.1410
       6    H4      19.871213   21.108297   20.711021 H          1 MOL1         0.0948
       7    H5      20.364602   20.114803   19.347121 H          1 MOL1         0.0948
       8    C3      20.539863   19.105702   21.256294 C.3        1 MOL1        -0.1435
       9    H6      20.510672   18.093990   20.828671 H          1 MOL1         0.0948
      10    H7      21.600548   19.386962   21.313341 H          1 MOL1         0.0948
      11    C4      19.944490   19.087070   22.684402 C.3        1 MOL1        -0.1435
      12    H8      18.908133   18.726187   22.649645 H          1 MOL1         0.0948
      13    H9      19.927084   20.114311   23.067925 H          1 MOL1         0.0948
      14    C5      20.768967   18.185237   23.633530 C.3        1 MOL1        -0.1435
      15    H10     20.930438   17.214331   23.144904 H          1 MOL1         0.0948
      16    H11     21.766593   18.622135   23.779490 H          1 MOL1         0.0948
      17    C6      20.114070   17.920585   25.014946 C.3        1 MOL1        -0.1500
      18    H12     20.745738   17.188331   25.535434 H          1 MOL1         0.0948
      19    H13     19.138206   17.434430   24.884613 H          1 MOL1         0.0948
      20    C7      19.964855   19.170947   25.913761 C.3        1 MOL1         0.1162
      21    H14     20.862409   19.786727   25.800839 H          1 MOL1         0.0910
      22    C8      19.846983   18.757930   27.390185 C.3        1 MOL1        -0.2491
      23    H15     19.757064   19.640980   28.034877 H          1 MOL1         0.0959
      24    H16     18.967735   18.122583   27.555395 H          1 MOL1         0.0959
      25    H17     20.736213   18.202128   27.712903 H          1 MOL1         0.0959
      26    N1      18.787876   20.026759   25.532590 N.4        1 MOL1        -0.5987
      27    H18     18.736089   20.870041   26.111391 H          1 MOL1         0.3605
      28    H19     17.906760   19.519671   25.651203 H          1 MOL1         0.3605
      29    H20     18.842994   20.324568   24.555935 H          1 MOL1         0.3605
@<TRIPOS>BOND
    1     1     2    1
    2     1     3    1
    3     1     4    1
    4     1     5    1
    5     5     6    1
    6     5     7    1
    7     5     8    1
    8     8     9    1
    9     8    10    1
   10     8    11    1
   11    11    12    1
   12    11    13    1
   13    11    14    1
   14    14    15    1
   15    14    16    1
   16    14    17    1
   17    17    18    1
   18    17    19    1
   19    17    20    1
   20    20    21    1
   21    20    22    1
   22    22    23    1
   23    22    24    1
   24    22    25    1
   25    20    26    1
   26    26    27    1
   27    26    28    1
   28    26    29    1
@<TRIPOS>SUBSTRUCTURE
       1 MOL1            1 RESIDUE      1      MOL     
@<SCITEGIC>MOL_PROPERTY
VM2 Rank
SciTegic.value.IntegerValue
90

@<SCITEGIC>MOL_PROPERTY
Conf_Id
SciTegic.value.IntegerValue
1176

@<SCITEGIC>MOL_PROPERTY
Probability
SciTegic.value.DoubleValue
0.02

@<SCITEGIC>MOL_PROPERTY
Sum Probability
SciTegic.value.DoubleValue
99.30

@<SCITEGIC>MOL_PROPERTY
Delta G
SciTegic.value.DoubleValue
3.719

@<SCITEGIC>MOL_PROPERTY
G
SciTegic.value.DoubleValue
37.421

@<SCITEGIC>MOL_PROPERTY
E
SciTegic.value.DoubleValue
-0.101

@<SCITEGIC>MOL_PROPERTY
-TS
SciTegic.value.DoubleValue
37.522

@<SCITEGIC>MOL_PROPERTY
U+W
SciTegic.value.DoubleValue
-24.246

@<SCITEGIC>MOL_PROPERTY
U
SciTegic.value.DoubleValue
27.821

@<SCITEGIC>MOL_PROPERTY
W
SciTegic.value.DoubleValue
-52.067

@<SCITEGIC>MOL_PROPERTY
W(PB)
SciTegic.value.DoubleValue
-54.584

@<SCITEGIC>MOL_PROPERTY
W(SA)
SciTegic.value.DoubleValue
2.516

@<SCITEGIC>MOL_PROPERTY
Valence
SciTegic.value.DoubleValue
5.451

@<SCITEGIC>MOL_PROPERTY
Coulomb
SciTegic.value.DoubleValue
21.220

@<SCITEGIC>MOL_PROPERTY
VdW
SciTegic.value.DoubleValue
1.151

@<SCITEGIC>MOL_PROPERTY
VdW6
SciTegic.value.DoubleValue
-9.707

@<SCITEGIC>MOL_PROPERTY
VdW12
SciTegic.value.DoubleValue
10.858

@<SCITEGIC>MOL_PROPERTY
Bond
SciTegic.value.DoubleValue
0.277

@<SCITEGIC>MOL_PROPERTY
Angle
SciTegic.value.DoubleValue
1.826

@<SCITEGIC>MOL_PROPERTY
Pdih
SciTegic.value.DoubleValue
3.348

@<SCITEGIC>MOL_PROPERTY
Idih
SciTegic.value.DoubleValue
0.000

@<SCITEGIC>MOL_PROPERTY
Tether
SciTegic.value.DoubleValue
0.000

@<TRIPOS>MOLECULE
guest-s15_vm2.mol2 : vm2 ligand conformer 91
          29          28           1
SMALL
USER_CHARGES
 
@<TRIPOS>ATOM
       1    C1      20.906631   20.370098   20.524863 C.3        1 MOL1        -0.2426
       2    H1      21.162812   20.493378   21.582772 H          1 MOL1         0.0959
       3    H2      21.710591   19.794889   20.047560 H          1 MOL1         0.0959
       4    H3      20.894689   21.367855   20.067449 H          1 MOL1         0.0959
       5    C2      19.540246   19.671425   20.333333 C.3        1 MOL1        -0.1410
       6    H4      19.341262   19.608380   19.254307 H          1 MOL1         0.0948
       7    H5      18.733482   20.287784   20.753795 H          1 MOL1         0.0948
       8    C3      19.491221   18.240542   20.928324 C.3        1 MOL1        -0.1435
       9    H6      18.860816   17.620742   20.275791 H          1 MOL1         0.0948
      10    H7      20.489095   17.781826   20.897396 H          1 MOL1         0.0948
      11    C4      18.907115   18.150418   22.361827 C.3        1 MOL1        -0.1435
      12    H8      18.859821   17.090389   22.647186 H          1 MOL1         0.0948
      13    H9      17.869615   18.512070   22.355732 H          1 MOL1         0.0948
      14    C5      19.715341   18.922998   23.429772 C.3        1 MOL1        -0.1435
      15    H10     20.772068   18.634731   23.357197 H          1 MOL1         0.0948
      16    H11     19.654331   20.000454   23.229057 H          1 MOL1         0.0948
      17    C6      19.186058   18.647969   24.858656 C.3        1 MOL1        -0.1500
      18    H12     19.307891   17.583779   25.100635 H          1 MOL1         0.0948
      19    H13     18.106854   18.849866   24.876244 H          1 MOL1         0.0948
      20    C7      19.862631   19.509550   25.949174 C.3        1 MOL1         0.1162
      21    H14     19.759484   20.562136   25.668021 H          1 MOL1         0.0910
      22    C8      21.360977   19.189106   26.095835 C.3        1 MOL1        -0.2491
      23    H15     21.803081   19.774438   26.911480 H          1 MOL1         0.0959
      24    H16     21.519720   18.125931   26.315314 H          1 MOL1         0.0959
      25    H17     21.913469   19.438211   25.182526 H          1 MOL1         0.0959
      26    N1      19.165782   19.353894   27.272217 N.4        1 MOL1        -0.5987
      27    H18     19.585582   19.953037   27.988810 H          1 MOL1         0.3605
      28    H19     19.218249   18.389508   27.611285 H          1 MOL1         0.3605
      29    H20     18.174761   19.604261   27.208286 H          1 MOL1         0.3605
@<TRIPOS>BOND
    1     1     2    1
    2     1     3    1
    3     1     4    1
    4     1     5    1
    5     5     6    1
    6     5     7    1
    7     5     8    1
    8     8     9    1
    9     8    10    1
   10     8    11    1
   11    11    12    1
   12    11    13    1
   13    11    14    1
   14    14    15    1
   15    14    16    1
   16    14    17    1
   17    17    18    1
   18    17    19    1
   19    17    20    1
   20    20    21    1
   21    20    22    1
   22    22    23    1
   23    22    24    1
   24    22    25    1
   25    20    26    1
   26    26    27    1
   27    26    28    1
   28    26    29    1
@<TRIPOS>SUBSTRUCTURE
       1 MOL1            1 RESIDUE      1      MOL     
@<SCITEGIC>MOL_PROPERTY
VM2 Rank
SciTegic.value.IntegerValue
91

@<SCITEGIC>MOL_PROPERTY
Conf_Id
SciTegic.value.IntegerValue
1245

@<SCITEGIC>MOL_PROPERTY
Probability
SciTegic.value.DoubleValue
0.02

@<SCITEGIC>MOL_PROPERTY
Sum Probability
SciTegic.value.DoubleValue
99.32

@<SCITEGIC>MOL_PROPERTY
Delta G
SciTegic.value.DoubleValue
3.748

@<SCITEGIC>MOL_PROPERTY
G
SciTegic.value.DoubleValue
37.449

@<SCITEGIC>MOL_PROPERTY
E
SciTegic.value.DoubleValue
-0.303

@<SCITEGIC>MOL_PROPERTY
-TS
SciTegic.value.DoubleValue
37.752

@<SCITEGIC>MOL_PROPERTY
U+W
SciTegic.value.DoubleValue
-24.447

@<SCITEGIC>MOL_PROPERTY
U
SciTegic.value.DoubleValue
27.666

@<SCITEGIC>MOL_PROPERTY
W
SciTegic.value.DoubleValue
-52.113

@<SCITEGIC>MOL_PROPERTY
W(PB)
SciTegic.value.DoubleValue
-54.554

@<SCITEGIC>MOL_PROPERTY
W(SA)
SciTegic.value.DoubleValue
2.441

@<SCITEGIC>MOL_PROPERTY
Valence
SciTegic.value.DoubleValue
6.691

@<SCITEGIC>MOL_PROPERTY
Coulomb
SciTegic.value.DoubleValue
19.707

@<SCITEGIC>MOL_PROPERTY
VdW
SciTegic.value.DoubleValue
1.268

@<SCITEGIC>MOL_PROPERTY
VdW6
SciTegic.value.DoubleValue
-9.727

@<SCITEGIC>MOL_PROPERTY
VdW12
SciTegic.value.DoubleValue
10.995

@<SCITEGIC>MOL_PROPERTY
Bond
SciTegic.value.DoubleValue
0.283

@<SCITEGIC>MOL_PROPERTY
Angle
SciTegic.value.DoubleValue
1.951

@<SCITEGIC>MOL_PROPERTY
Pdih
SciTegic.value.DoubleValue
4.457

@<SCITEGIC>MOL_PROPERTY
Idih
SciTegic.value.DoubleValue
0.000

@<SCITEGIC>MOL_PROPERTY
Tether
SciTegic.value.DoubleValue
0.000

@<TRIPOS>MOLECULE
guest-s15_vm2.mol2 : vm2 ligand conformer 92
          29          28           1
SMALL
USER_CHARGES
 
@<TRIPOS>ATOM
       1    C1      20.042188   20.726206   20.611565 C.3        1 MOL1        -0.2426
       2    H1      19.908934   21.500590   19.845125 H          1 MOL1         0.0959
       3    H2      19.380947   20.978267   21.449696 H          1 MOL1         0.0959
       4    H3      21.082359   20.772620   20.959051 H          1 MOL1         0.0959
       5    C2      19.708969   19.333295   20.034415 C.3        1 MOL1        -0.1410
       6    H4      20.270110   19.196215   19.099507 H          1 MOL1         0.0948
       7    H5      18.645707   19.298071   19.758880 H          1 MOL1         0.0948
       8    C3      20.039241   18.152712   20.982950 C.3        1 MOL1        -0.1435
       9    H6      19.807552   17.222863   20.445307 H          1 MOL1         0.0948
      10    H7      21.119343   18.118432   21.181054 H          1 MOL1         0.0948
      11    C4      19.246215   18.149649   22.315862 C.3        1 MOL1        -0.1435
      12    H8      19.032138   17.107345   22.590068 H          1 MOL1         0.0948
      13    H9      18.269858   18.632799   22.173079 H          1 MOL1         0.0948
      14    C5      20.011189   18.808837   23.489770 C.3        1 MOL1        -0.1435
      15    H10     20.958900   18.275138   23.638277 H          1 MOL1         0.0948
      16    H11     20.269077   19.845756   23.244222 H          1 MOL1         0.0948
      17    C6      19.181754   18.785365   24.797081 C.3        1 MOL1        -0.1500
      18    H12     18.985905   17.746226   25.093267 H          1 MOL1         0.0948
      19    H13     18.203257   19.241945   24.597661 H          1 MOL1         0.0948
      20    C7      19.844770   19.544297   25.969180 C.3        1 MOL1         0.1162
      21    H14     20.065722   20.563359   25.637040 H          1 MOL1         0.0910
      22    C8      21.159494   18.882759   26.419819 C.3        1 MOL1        -0.2491
      23    H15     21.914254   18.913376   25.625600 H          1 MOL1         0.0959
      24    H16     21.579476   19.408844   27.285960 H          1 MOL1         0.0959
      25    H17     20.999718   17.834910   26.703008 H          1 MOL1         0.0959
      26    N1      18.902179   19.672880   27.133358 N.4        1 MOL1        -0.5987
      27    H18     19.322776   20.209266   27.897622 H          1 MOL1         0.3605
      28    H19     18.644834   18.756168   27.509093 H          1 MOL1         0.3605
      29    H20     18.036320   20.150429   26.866679 H          1 MOL1         0.3605
@<TRIPOS>BOND
    1     1     2    1
    2     1     3    1
    3     1     4    1
    4     1     5    1
    5     5     6    1
    6     5     7    1
    7     5     8    1
    8     8     9    1
    9     8    10    1
   10     8    11    1
   11    11    12    1
   12    11    13    1
   13    11    14    1
   14    14    15    1
   15    14    16    1
   16    14    17    1
   17    17    18    1
   18    17    19    1
   19    17    20    1
   20    20    21    1
   21    20    22    1
   22    22    23    1
   23    22    24    1
   24    22    25    1
   25    20    26    1
   26    26    27    1
   27    26    28    1
   28    26    29    1
@<TRIPOS>SUBSTRUCTURE
       1 MOL1            1 RESIDUE      1      MOL     
@<SCITEGIC>MOL_PROPERTY
VM2 Rank
SciTegic.value.IntegerValue
92

@<SCITEGIC>MOL_PROPERTY
Conf_Id
SciTegic.value.IntegerValue
320

@<SCITEGIC>MOL_PROPERTY
Probability
SciTegic.value.DoubleValue
0.02

@<SCITEGIC>MOL_PROPERTY
Sum Probability
SciTegic.value.DoubleValue
99.34

@<SCITEGIC>MOL_PROPERTY
Delta G
SciTegic.value.DoubleValue
3.752

@<SCITEGIC>MOL_PROPERTY
G
SciTegic.value.DoubleValue
37.453

@<SCITEGIC>MOL_PROPERTY
E
SciTegic.value.DoubleValue
-0.296

@<SCITEGIC>MOL_PROPERTY
-TS
SciTegic.value.DoubleValue
37.749

@<SCITEGIC>MOL_PROPERTY
U+W
SciTegic.value.DoubleValue
-24.440

@<SCITEGIC>MOL_PROPERTY
U
SciTegic.value.DoubleValue
27.705

@<SCITEGIC>MOL_PROPERTY
W
SciTegic.value.DoubleValue
-52.145

@<SCITEGIC>MOL_PROPERTY
W(PB)
SciTegic.value.DoubleValue
-54.637

@<SCITEGIC>MOL_PROPERTY
W(SA)
SciTegic.value.DoubleValue
2.492

@<SCITEGIC>MOL_PROPERTY
Valence
SciTegic.value.DoubleValue
6.675

@<SCITEGIC>MOL_PROPERTY
Coulomb
SciTegic.value.DoubleValue
19.752

@<SCITEGIC>MOL_PROPERTY
VdW
SciTegic.value.DoubleValue
1.278

@<SCITEGIC>MOL_PROPERTY
VdW6
SciTegic.value.DoubleValue
-9.694

@<SCITEGIC>MOL_PROPERTY
VdW12
SciTegic.value.DoubleValue
10.972

@<SCITEGIC>MOL_PROPERTY
Bond
SciTegic.value.DoubleValue
0.285

@<SCITEGIC>MOL_PROPERTY
Angle
SciTegic.value.DoubleValue
1.922

@<SCITEGIC>MOL_PROPERTY
Pdih
SciTegic.value.DoubleValue
4.468

@<SCITEGIC>MOL_PROPERTY
Idih
SciTegic.value.DoubleValue
0.000

@<SCITEGIC>MOL_PROPERTY
Tether
SciTegic.value.DoubleValue
0.000

@<TRIPOS>MOLECULE
guest-s15_vm2.mol2 : vm2 ligand conformer 93
          29          28           1
SMALL
USER_CHARGES
 
@<TRIPOS>ATOM
       1    C1      20.751307   18.043001   20.607502 C.3        1 MOL1        -0.2426
       2    H1      21.007114   17.319836   19.822355 H          1 MOL1         0.0959
       3    H2      21.683111   18.512219   20.948704 H          1 MOL1         0.0959
       4    H3      20.316362   17.479576   21.442195 H          1 MOL1         0.0959
       5    C2      19.761448   19.097914   20.067188 C.3        1 MOL1        -0.1410
       6    H4      18.817463   18.605600   19.794775 H          1 MOL1         0.0948
       7    H5      20.166491   19.515857   19.134994 H          1 MOL1         0.0948
       8    C3      19.474667   20.265769   21.045274 C.3        1 MOL1        -0.1435
       9    H6      20.397465   20.828462   21.242512 H          1 MOL1         0.0948
      10    H7      18.803540   20.968557   20.532401 H          1 MOL1         0.0948
      11    C4      18.804717   19.844739   22.379179 C.3        1 MOL1        -0.1435
      12    H8      18.201343   18.939134   22.227612 H          1 MOL1         0.0948
      13    H9      18.099850   20.633066   22.677632 H          1 MOL1         0.0948
      14    C5      19.813381   19.635124   23.535079 C.3        1 MOL1        -0.1435
      15    H10     20.560597   18.888405   23.246109 H          1 MOL1         0.0948
      16    H11     20.358082   20.571966   23.716409 H          1 MOL1         0.0948
      17    C6      19.104805   19.192581   24.838754 C.3        1 MOL1        -0.1500
      18    H12     18.608539   18.225888   24.680225 H          1 MOL1         0.0948
      19    H13     18.311147   19.915919   25.068055 H          1 MOL1         0.0948
      20    C7      20.048262   19.098338   26.059594 C.3        1 MOL1         0.1162
      21    H14     20.563658   20.057385   26.170127 H          1 MOL1         0.0910
      22    C8      21.106069   17.992609   25.892348 C.3        1 MOL1        -0.2491
      23    H15     21.724498   17.910228   26.794629 H          1 MOL1         0.0959
      24    H16     20.636055   17.017768   25.712115 H          1 MOL1         0.0959
      25    H17     21.781194   18.208939   25.056441 H          1 MOL1         0.0959
      26    N1      19.271344   18.885925   27.329083 N.4        1 MOL1        -0.5987
      27    H18     18.589995   19.634700   27.483987 H          1 MOL1         0.3605
      28    H19     19.888681   18.862325   28.145811 H          1 MOL1         0.3605
      29    H20     18.757051   18.001134   27.309195 H          1 MOL1         0.3605
@<TRIPOS>BOND
    1     1     2    1
    2     1     3    1
    3     1     4    1
    4     1     5    1
    5     5     6    1
    6     5     7    1
    7     5     8    1
    8     8     9    1
    9     8    10    1
   10     8    11    1
   11    11    12    1
   12    11    13    1
   13    11    14    1
   14    14    15    1
   15    14    16    1
   16    14    17    1
   17    17    18    1
   18    17    19    1
   19    17    20    1
   20    20    21    1
   21    20    22    1
   22    22    23    1
   23    22    24    1
   24    22    25    1
   25    20    26    1
   26    26    27    1
   27    26    28    1
   28    26    29    1
@<TRIPOS>SUBSTRUCTURE
       1 MOL1            1 RESIDUE      1      MOL     
@<SCITEGIC>MOL_PROPERTY
VM2 Rank
SciTegic.value.IntegerValue
93

@<SCITEGIC>MOL_PROPERTY
Conf_Id
SciTegic.value.IntegerValue
187

@<SCITEGIC>MOL_PROPERTY
Probability
SciTegic.value.DoubleValue
0.02

@<SCITEGIC>MOL_PROPERTY
Sum Probability
SciTegic.value.DoubleValue
99.36

@<SCITEGIC>MOL_PROPERTY
Delta G
SciTegic.value.DoubleValue
3.756

@<SCITEGIC>MOL_PROPERTY
G
SciTegic.value.DoubleValue
37.457

@<SCITEGIC>MOL_PROPERTY
E
SciTegic.value.DoubleValue
-0.302

@<SCITEGIC>MOL_PROPERTY
-TS
SciTegic.value.DoubleValue
37.759

@<SCITEGIC>MOL_PROPERTY
U+W
SciTegic.value.DoubleValue
-24.446

@<SCITEGIC>MOL_PROPERTY
U
SciTegic.value.DoubleValue
27.633

@<SCITEGIC>MOL_PROPERTY
W
SciTegic.value.DoubleValue
-52.079

@<SCITEGIC>MOL_PROPERTY
W(PB)
SciTegic.value.DoubleValue
-54.518

@<SCITEGIC>MOL_PROPERTY
W(SA)
SciTegic.value.DoubleValue
2.440

@<SCITEGIC>MOL_PROPERTY
Valence
SciTegic.value.DoubleValue
6.676

@<SCITEGIC>MOL_PROPERTY
Coulomb
SciTegic.value.DoubleValue
19.710

@<SCITEGIC>MOL_PROPERTY
VdW
SciTegic.value.DoubleValue
1.246

@<SCITEGIC>MOL_PROPERTY
VdW6
SciTegic.value.DoubleValue
-9.758

@<SCITEGIC>MOL_PROPERTY
VdW12
SciTegic.value.DoubleValue
11.005

@<SCITEGIC>MOL_PROPERTY
Bond
SciTegic.value.DoubleValue
0.286

@<SCITEGIC>MOL_PROPERTY
Angle
SciTegic.value.DoubleValue
1.893

@<SCITEGIC>MOL_PROPERTY
Pdih
SciTegic.value.DoubleValue
4.497

@<SCITEGIC>MOL_PROPERTY
Idih
SciTegic.value.DoubleValue
0.000

@<SCITEGIC>MOL_PROPERTY
Tether
SciTegic.value.DoubleValue
0.000

@<TRIPOS>MOLECULE
guest-s15_vm2.mol2 : vm2 ligand conformer 94
          29          28           1
SMALL
USER_CHARGES
 
@<TRIPOS>ATOM
       1    C1      18.898247   17.958199   20.718406 C.3        1 MOL1        -0.2426
       2    H1      18.674490   17.248271   19.911691 H          1 MOL1         0.0959
       3    H2      19.492530   17.423311   21.469437 H          1 MOL1         0.0959
       4    H3      17.946365   18.260004   21.174114 H          1 MOL1         0.0959
       5    C2      19.663231   19.179996   20.164678 C.3        1 MOL1        -0.1410
       6    H4      19.110514   19.580694   19.303485 H          1 MOL1         0.0948
       7    H5      20.637717   18.853594   19.775418 H          1 MOL1         0.0948
       8    C3      19.870397   20.323470   21.190514 C.3        1 MOL1        -0.1435
       9    H6      20.376705   21.147275   20.668647 H          1 MOL1         0.0948
      10    H7      18.898923   20.726901   21.507570 H          1 MOL1         0.0948
      11    C4      20.723824   19.938611   22.427042 C.3        1 MOL1        -0.1435
      12    H8      21.329781   20.808691   22.715376 H          1 MOL1         0.0948
      13    H9      21.437067   19.146838   22.159672 H          1 MOL1         0.0948
      14    C5      19.876873   19.513175   23.651298 C.3        1 MOL1        -0.1435
      15    H10     19.217983   20.344066   23.935525 H          1 MOL1         0.0948
      16    H11     19.226435   18.674489   23.380989 H          1 MOL1         0.0948
      17    C6      20.773057   19.116172   24.853076 C.3        1 MOL1        -0.1500
      18    H12     21.444255   19.951003   25.093839 H          1 MOL1         0.0948
      19    H13     21.422979   18.280999   24.560096 H          1 MOL1         0.0948
      20    C7      20.004962   18.720791   26.136365 C.3        1 MOL1         0.1162
      21    H14     20.750761   18.497976   26.905717 H          1 MOL1         0.0910
      22    C8      19.152925   17.455477   25.934768 C.3        1 MOL1        -0.2491
      23    H15     19.761356   16.635486   25.533510 H          1 MOL1         0.0959
      24    H16     18.732505   17.120369   26.890877 H          1 MOL1         0.0959
      25    H17     18.318140   17.633297   25.246508 H          1 MOL1         0.0959
      26    N1      19.172484   19.850110   26.677853 N.4        1 MOL1        -0.5987
      27    H18     19.740973   20.682803   26.857160 H          1 MOL1         0.3605
      28    H19     18.720430   19.592127   27.559744 H          1 MOL1         0.3605
      29    H20     18.434936   20.115612   26.020562 H          1 MOL1         0.3605
@<TRIPOS>BOND
    1     1     2    1
    2     1     3    1
    3     1     4    1
    4     1     5    1
    5     5     6    1
    6     5     7    1
    7     5     8    1
    8     8     9    1
    9     8    10    1
   10     8    11    1
   11    11    12    1
   12    11    13    1
   13    11    14    1
   14    14    15    1
   15    14    16    1
   16    14    17    1
   17    17    18    1
   18    17    19    1
   19    17    20    1
   20    20    21    1
   21    20    22    1
   22    22    23    1
   23    22    24    1
   24    22    25    1
   25    20    26    1
   26    26    27    1
   27    26    28    1
   28    26    29    1
@<TRIPOS>SUBSTRUCTURE
       1 MOL1            1 RESIDUE      1      MOL     
@<SCITEGIC>MOL_PROPERTY
VM2 Rank
SciTegic.value.IntegerValue
94

@<SCITEGIC>MOL_PROPERTY
Conf_Id
SciTegic.value.IntegerValue
248

@<SCITEGIC>MOL_PROPERTY
Probability
SciTegic.value.DoubleValue
0.02

@<SCITEGIC>MOL_PROPERTY
Sum Probability
SciTegic.value.DoubleValue
99.38

@<SCITEGIC>MOL_PROPERTY
Delta G
SciTegic.value.DoubleValue
3.772

@<SCITEGIC>MOL_PROPERTY
G
SciTegic.value.DoubleValue
37.474

@<SCITEGIC>MOL_PROPERTY
E
SciTegic.value.DoubleValue
-0.420

@<SCITEGIC>MOL_PROPERTY
-TS
SciTegic.value.DoubleValue
37.893

@<SCITEGIC>MOL_PROPERTY
U+W
SciTegic.value.DoubleValue
-24.564

@<SCITEGIC>MOL_PROPERTY
U
SciTegic.value.DoubleValue
27.852

@<SCITEGIC>MOL_PROPERTY
W
SciTegic.value.DoubleValue
-52.416

@<SCITEGIC>MOL_PROPERTY
W(PB)
SciTegic.value.DoubleValue
-54.827

@<SCITEGIC>MOL_PROPERTY
W(SA)
SciTegic.value.DoubleValue
2.412

@<SCITEGIC>MOL_PROPERTY
Valence
SciTegic.value.DoubleValue
6.641

@<SCITEGIC>MOL_PROPERTY
Coulomb
SciTegic.value.DoubleValue
19.992

@<SCITEGIC>MOL_PROPERTY
VdW
SciTegic.value.DoubleValue
1.219

@<SCITEGIC>MOL_PROPERTY
VdW6
SciTegic.value.DoubleValue
-10.253

@<SCITEGIC>MOL_PROPERTY
VdW12
SciTegic.value.DoubleValue
11.472

@<SCITEGIC>MOL_PROPERTY
Bond
SciTegic.value.DoubleValue
0.310

@<SCITEGIC>MOL_PROPERTY
Angle
SciTegic.value.DoubleValue
1.947

@<SCITEGIC>MOL_PROPERTY
Pdih
SciTegic.value.DoubleValue
4.384

@<SCITEGIC>MOL_PROPERTY
Idih
SciTegic.value.DoubleValue
0.000

@<SCITEGIC>MOL_PROPERTY
Tether
SciTegic.value.DoubleValue
0.000

@<TRIPOS>MOLECULE
guest-s15_vm2.mol2 : vm2 ligand conformer 95
          29          28           1
SMALL
USER_CHARGES
 
@<TRIPOS>ATOM
       1    C1      18.255313   19.423287   20.009576 C.3        1 MOL1        -0.2426
       2    H1      17.633795   18.608602   20.403547 H          1 MOL1         0.0959
       3    H2      17.596914   20.273896   19.790487 H          1 MOL1         0.0959
       4    H3      18.698962   19.087998   19.063008 H          1 MOL1         0.0959
       5    C2      19.347616   19.826383   21.022494 C.3        1 MOL1        -0.1410
       6    H4      18.869012   20.196473   21.936837 H          1 MOL1         0.0948
       7    H5      19.929070   20.664265   20.613156 H          1 MOL1         0.0948
       8    C3      20.295122   18.644173   21.338919 C.3        1 MOL1        -0.1435
       9    H6      19.721417   17.778826   21.698260 H          1 MOL1         0.0948
      10    H7      20.767038   18.325372   20.399199 H          1 MOL1         0.0948
      11    C4      21.414271   19.000260   22.352084 C.3        1 MOL1        -0.1435
      12    H8      21.677473   20.063990   22.272400 H          1 MOL1         0.0948
      13    H9      22.321091   18.449680   22.065785 H          1 MOL1         0.0948
      14    C5      21.094983   18.636398   23.825126 C.3        1 MOL1        -0.1435
      15    H10     20.932690   17.552714   23.896015 H          1 MOL1         0.0948
      16    H11     21.982400   18.855885   24.434822 H          1 MOL1         0.0948
      17    C6      19.879234   19.391557   24.417629 C.3        1 MOL1        -0.1500
      18    H12     18.956773   19.051498   23.930346 H          1 MOL1         0.0948
      19    H13     19.985696   20.460515   24.191145 H          1 MOL1         0.0948
      20    C7      19.734553   19.226602   25.947447 C.3        1 MOL1         0.1162
      21    H14     20.674658   19.533409   26.416145 H          1 MOL1         0.0910
      22    C8      19.443785   17.768973   26.347273 C.3        1 MOL1        -0.2491
      23    H15     18.537865   17.395328   25.853906 H          1 MOL1         0.0959
      24    H16     20.277485   17.108978   26.080896 H          1 MOL1         0.0959
      25    H17     19.298987   17.687339   27.431570 H          1 MOL1         0.0959
      26    N1      18.671123   20.138368   26.493453 N.4        1 MOL1        -0.5987
      27    H18     18.867667   21.119664   26.276018 H          1 MOL1         0.3605
      28    H19     18.599484   20.060827   27.512071 H          1 MOL1         0.3605
      29    H20     17.751001   19.914902   26.104716 H          1 MOL1         0.3605
@<TRIPOS>BOND
    1     1     2    1
    2     1     3    1
    3     1     4    1
    4     1     5    1
    5     5     6    1
    6     5     7    1
    7     5     8    1
    8     8     9    1
    9     8    10    1
   10     8    11    1
   11    11    12    1
   12    11    13    1
   13    11    14    1
   14    14    15    1
   15    14    16    1
   16    14    17    1
   17    17    18    1
   18    17    19    1
   19    17    20    1
   20    20    21    1
   21    20    22    1
   22    22    23    1
   23    22    24    1
   24    22    25    1
   25    20    26    1
   26    26    27    1
   27    26    28    1
   28    26    29    1
@<TRIPOS>SUBSTRUCTURE
       1 MOL1            1 RESIDUE      1      MOL     
@<SCITEGIC>MOL_PROPERTY
VM2 Rank
SciTegic.value.IntegerValue
95

@<SCITEGIC>MOL_PROPERTY
Conf_Id
SciTegic.value.IntegerValue
88

@<SCITEGIC>MOL_PROPERTY
Probability
SciTegic.value.DoubleValue
0.02

@<SCITEGIC>MOL_PROPERTY
Sum Probability
SciTegic.value.DoubleValue
99.40

@<SCITEGIC>MOL_PROPERTY
Delta G
SciTegic.value.DoubleValue
3.774

@<SCITEGIC>MOL_PROPERTY
G
SciTegic.value.DoubleValue
37.476

@<SCITEGIC>MOL_PROPERTY
E
SciTegic.value.DoubleValue
-0.325

@<SCITEGIC>MOL_PROPERTY
-TS
SciTegic.value.DoubleValue
37.801

@<SCITEGIC>MOL_PROPERTY
U+W
SciTegic.value.DoubleValue
-24.470

@<SCITEGIC>MOL_PROPERTY
U
SciTegic.value.DoubleValue
28.013

@<SCITEGIC>MOL_PROPERTY
W
SciTegic.value.DoubleValue
-52.483

@<SCITEGIC>MOL_PROPERTY
W(PB)
SciTegic.value.DoubleValue
-54.954

@<SCITEGIC>MOL_PROPERTY
W(SA)
SciTegic.value.DoubleValue
2.471

@<SCITEGIC>MOL_PROPERTY
Valence
SciTegic.value.DoubleValue
6.671

@<SCITEGIC>MOL_PROPERTY
Coulomb
SciTegic.value.DoubleValue
20.180

@<SCITEGIC>MOL_PROPERTY
VdW
SciTegic.value.DoubleValue
1.162

@<SCITEGIC>MOL_PROPERTY
VdW6
SciTegic.value.DoubleValue
-9.853

@<SCITEGIC>MOL_PROPERTY
VdW12
SciTegic.value.DoubleValue
11.014

@<SCITEGIC>MOL_PROPERTY
Bond
SciTegic.value.DoubleValue
0.284

@<SCITEGIC>MOL_PROPERTY
Angle
SciTegic.value.DoubleValue
1.876

@<SCITEGIC>MOL_PROPERTY
Pdih
SciTegic.value.DoubleValue
4.511

@<SCITEGIC>MOL_PROPERTY
Idih
SciTegic.value.DoubleValue
0.000

@<SCITEGIC>MOL_PROPERTY
Tether
SciTegic.value.DoubleValue
0.000

@<TRIPOS>MOLECULE
guest-s15_vm2.mol2 : vm2 ligand conformer 96
          29          28           1
SMALL
USER_CHARGES
 
@<TRIPOS>ATOM
       1    C1      20.554774   19.738395   19.311997 C.3        1 MOL1        -0.2426
       2    H1      20.628463   18.781966   18.778106 H          1 MOL1         0.0959
       3    H2      19.671446   20.271996   18.937500 H          1 MOL1         0.0959
       4    H3      21.441190   20.334463   19.059016 H          1 MOL1         0.0959
       5    C2      20.463581   19.517639   20.836745 C.3        1 MOL1        -0.1410
       6    H4      20.433563   20.494809   21.336283 H          1 MOL1         0.0948
       7    H5      21.372869   19.008731   21.185801 H          1 MOL1         0.0948
       8    C3      19.218420   18.682448   21.217828 C.3        1 MOL1        -0.1435
       9    H6      18.306480   19.215464   20.915397 H          1 MOL1         0.0948
      10    H7      19.230838   17.744312   20.645935 H          1 MOL1         0.0948
      11    C4      19.144005   18.336187   22.724970 C.3        1 MOL1        -0.1435
      12    H8      20.054761   17.800269   23.017666 H          1 MOL1         0.0948
      13    H9      18.315310   17.630765   22.876035 H          1 MOL1         0.0948
      14    C5      18.917161   19.573501   23.632110 C.3        1 MOL1        -0.1435
      15    H10     19.721555   20.309320   23.504771 H          1 MOL1         0.0948
      16    H11     17.994900   20.072247   23.303461 H          1 MOL1         0.0948
      17    C6      18.772711   19.214949   25.135105 C.3        1 MOL1        -0.1500
      18    H12     18.374266   18.198088   25.248763 H          1 MOL1         0.0948
      19    H13     18.015049   19.882172   25.566938 H          1 MOL1         0.0948
      20    C7      20.065550   19.378480   25.970238 C.3        1 MOL1         0.1162
      21    H14     20.400849   20.416120   25.878322 H          1 MOL1         0.0910
      22    C8      21.205646   18.463040   25.493531 C.3        1 MOL1        -0.2491
      23    H15     22.072412   18.544835   26.160848 H          1 MOL1         0.0959
      24    H16     20.889911   17.412600   25.472085 H          1 MOL1         0.0959
      25    H17     21.544230   18.747114   24.490503 H          1 MOL1         0.0959
      26    N1      19.794152   19.151362   27.431476 N.4        1 MOL1        -0.5987
      27    H18     20.634495   19.305018   27.996161 H          1 MOL1         0.3605
      28    H19     19.478093   18.194013   27.608422 H          1 MOL1         0.3605
      29    H20     19.070467   19.784667   27.783710 H          1 MOL1         0.3605
@<TRIPOS>BOND
    1     1     2    1
    2     1     3    1
    3     1     4    1
    4     1     5    1
    5     5     6    1
    6     5     7    1
    7     5     8    1
    8     8     9    1
    9     8    10    1
   10     8    11    1
   11    11    12    1
   12    11    13    1
   13    11    14    1
   14    14    15    1
   15    14    16    1
   16    14    17    1
   17    17    18    1
   18    17    19    1
   19    17    20    1
   20    20    21    1
   21    20    22    1
   22    22    23    1
   23    22    24    1
   24    22    25    1
   25    20    26    1
   26    26    27    1
   27    26    28    1
   28    26    29    1
@<TRIPOS>SUBSTRUCTURE
       1 MOL1            1 RESIDUE      1      MOL     
@<SCITEGIC>MOL_PROPERTY
VM2 Rank
SciTegic.value.IntegerValue
96

@<SCITEGIC>MOL_PROPERTY
Conf_Id
SciTegic.value.IntegerValue
1279

@<SCITEGIC>MOL_PROPERTY
Probability
SciTegic.value.DoubleValue
0.02

@<SCITEGIC>MOL_PROPERTY
Sum Probability
SciTegic.value.DoubleValue
99.42

@<SCITEGIC>MOL_PROPERTY
Delta G
SciTegic.value.DoubleValue
3.785

@<SCITEGIC>MOL_PROPERTY
G
SciTegic.value.DoubleValue
37.487

@<SCITEGIC>MOL_PROPERTY
E
SciTegic.value.DoubleValue
-0.252

@<SCITEGIC>MOL_PROPERTY
-TS
SciTegic.value.DoubleValue
37.739

@<SCITEGIC>MOL_PROPERTY
U+W
SciTegic.value.DoubleValue
-24.396

@<SCITEGIC>MOL_PROPERTY
U
SciTegic.value.DoubleValue
27.862

@<SCITEGIC>MOL_PROPERTY
W
SciTegic.value.DoubleValue
-52.258

@<SCITEGIC>MOL_PROPERTY
W(PB)
SciTegic.value.DoubleValue
-54.707

@<SCITEGIC>MOL_PROPERTY
W(SA)
SciTegic.value.DoubleValue
2.449

@<SCITEGIC>MOL_PROPERTY
Valence
SciTegic.value.DoubleValue
6.792

@<SCITEGIC>MOL_PROPERTY
Coulomb
SciTegic.value.DoubleValue
19.861

@<SCITEGIC>MOL_PROPERTY
VdW
SciTegic.value.DoubleValue
1.208

@<SCITEGIC>MOL_PROPERTY
VdW6
SciTegic.value.DoubleValue
-9.832

@<SCITEGIC>MOL_PROPERTY
VdW12
SciTegic.value.DoubleValue
11.040

@<SCITEGIC>MOL_PROPERTY
Bond
SciTegic.value.DoubleValue
0.295

@<SCITEGIC>MOL_PROPERTY
Angle
SciTegic.value.DoubleValue
1.936

@<SCITEGIC>MOL_PROPERTY
Pdih
SciTegic.value.DoubleValue
4.561

@<SCITEGIC>MOL_PROPERTY
Idih
SciTegic.value.DoubleValue
0.000

@<SCITEGIC>MOL_PROPERTY
Tether
SciTegic.value.DoubleValue
0.000

@<TRIPOS>MOLECULE
guest-s15_vm2.mol2 : vm2 ligand conformer 97
          29          28           1
SMALL
USER_CHARGES
 
@<TRIPOS>ATOM
       1    C1      20.155292   17.813528   20.031639 C.3        1 MOL1        -0.2426
       2    H1      19.671735   17.211293   20.810665 H          1 MOL1         0.0959
       3    H2      19.936066   17.340318   19.065751 H          1 MOL1         0.0959
       4    H3      21.241077   17.771129   20.187489 H          1 MOL1         0.0959
       5    C2      19.648502   19.273588   20.045512 C.3        1 MOL1        -0.1410
       6    H4      18.556779   19.287297   19.920348 H          1 MOL1         0.0948
       7    H5      20.064372   19.800625   19.175434 H          1 MOL1         0.0948
       8    C3      20.038365   20.048116   21.327524 C.3        1 MOL1        -0.1435
       9    H6      21.131504   20.046688   21.438179 H          1 MOL1         0.0948
      10    H7      19.741425   21.098788   21.204234 H          1 MOL1         0.0948
      11    C4      19.383345   19.484974   22.611273 C.3        1 MOL1        -0.1435
      12    H8      19.715837   18.453803   22.772987 H          1 MOL1         0.0948
      13    H9      18.293610   19.446031   22.476976 H          1 MOL1         0.0948
      14    C5      19.716320   20.351685   23.850505 C.3        1 MOL1        -0.1435
      15    H10     20.803803   20.466179   23.958784 H          1 MOL1         0.0948
      16    H11     19.321507   21.362385   23.676937 H          1 MOL1         0.0948
      17    C6      19.104631   19.804408   25.167446 C.3        1 MOL1        -0.1500
      18    H12     18.193948   19.228969   24.954512 H          1 MOL1         0.0948
      19    H13     18.780720   20.664300   25.768605 H          1 MOL1         0.0948
      20    C7      20.074414   18.968354   26.037044 C.3        1 MOL1         0.1162
      21    H14     20.944441   19.590038   26.269724 H          1 MOL1         0.0910
      22    C8      20.570103   17.697168   25.327327 C.3        1 MOL1        -0.2491
      23    H15     19.730527   17.078778   24.986324 H          1 MOL1         0.0959
      24    H16     21.193782   17.948128   24.461555 H          1 MOL1         0.0959
      25    H17     21.186503   17.091932   26.003365 H          1 MOL1         0.0959
      26    N1      19.445028   18.614179   27.355730 N.4        1 MOL1        -0.5987
      27    H18     20.097743   18.101983   27.955964 H          1 MOL1         0.3605
      28    H19     18.618857   18.023373   27.228841 H          1 MOL1         0.3605
      29    H20     19.150268   19.449616   27.869571 H          1 MOL1         0.3605
@<TRIPOS>BOND
    1     1     2    1
    2     1     3    1
    3     1     4    1
    4     1     5    1
    5     5     6    1
    6     5     7    1
    7     5     8    1
    8     8     9    1
    9     8    10    1
   10     8    11    1
   11    11    12    1
   12    11    13    1
   13    11    14    1
   14    14    15    1
   15    14    16    1
   16    14    17    1
   17    17    18    1
   18    17    19    1
   19    17    20    1
   20    20    21    1
   21    20    22    1
   22    22    23    1
   23    22    24    1
   24    22    25    1
   25    20    26    1
   26    26    27    1
   27    26    28    1
   28    26    29    1
@<TRIPOS>SUBSTRUCTURE
       1 MOL1            1 RESIDUE      1      MOL     
@<SCITEGIC>MOL_PROPERTY
VM2 Rank
SciTegic.value.IntegerValue
97

@<SCITEGIC>MOL_PROPERTY
Conf_Id
SciTegic.value.IntegerValue
258

@<SCITEGIC>MOL_PROPERTY
Probability
SciTegic.value.DoubleValue
0.02

@<SCITEGIC>MOL_PROPERTY
Sum Probability
SciTegic.value.DoubleValue
99.44

@<SCITEGIC>MOL_PROPERTY
Delta G
SciTegic.value.DoubleValue
3.803

@<SCITEGIC>MOL_PROPERTY
G
SciTegic.value.DoubleValue
37.505

@<SCITEGIC>MOL_PROPERTY
E
SciTegic.value.DoubleValue
-0.288

@<SCITEGIC>MOL_PROPERTY
-TS
SciTegic.value.DoubleValue
37.793

@<SCITEGIC>MOL_PROPERTY
U+W
SciTegic.value.DoubleValue
-24.433

@<SCITEGIC>MOL_PROPERTY
U
SciTegic.value.DoubleValue
27.713

@<SCITEGIC>MOL_PROPERTY
W
SciTegic.value.DoubleValue
-52.146

@<SCITEGIC>MOL_PROPERTY
W(PB)
SciTegic.value.DoubleValue
-54.604

@<SCITEGIC>MOL_PROPERTY
W(SA)
SciTegic.value.DoubleValue
2.458

@<SCITEGIC>MOL_PROPERTY
Valence
SciTegic.value.DoubleValue
6.758

@<SCITEGIC>MOL_PROPERTY
Coulomb
SciTegic.value.DoubleValue
19.720

@<SCITEGIC>MOL_PROPERTY
VdW
SciTegic.value.DoubleValue
1.235

@<SCITEGIC>MOL_PROPERTY
VdW6
SciTegic.value.DoubleValue
-9.782

@<SCITEGIC>MOL_PROPERTY
VdW12
SciTegic.value.DoubleValue
11.017

@<SCITEGIC>MOL_PROPERTY
Bond
SciTegic.value.DoubleValue
0.287

@<SCITEGIC>MOL_PROPERTY
Angle
SciTegic.value.DoubleValue
1.880

@<SCITEGIC>MOL_PROPERTY
Pdih
SciTegic.value.DoubleValue
4.591

@<SCITEGIC>MOL_PROPERTY
Idih
SciTegic.value.DoubleValue
0.000

@<SCITEGIC>MOL_PROPERTY
Tether
SciTegic.value.DoubleValue
0.000

@<TRIPOS>MOLECULE
guest-s15_vm2.mol2 : vm2 ligand conformer 98
          29          28           1
SMALL
USER_CHARGES
 
@<TRIPOS>ATOM
       1    C1      19.386430   18.804442   19.327892 C.3        1 MOL1        -0.2426
       2    H1      20.255445   19.331072   18.912300 H          1 MOL1         0.0959
       3    H2      19.333827   17.815158   18.855055 H          1 MOL1         0.0959
       4    H3      18.482720   19.360700   19.046641 H          1 MOL1         0.0959
       5    C2      19.501075   18.670157   20.861078 C.3        1 MOL1        -0.1410
       6    H4      20.392345   18.075256   21.101086 H          1 MOL1         0.0948
       7    H5      18.633820   18.114220   21.243740 H          1 MOL1         0.0948
       8    C3      19.580974   20.052985   21.549820 C.3        1 MOL1        -0.1435
       9    H6      20.475229   20.588656   21.202542 H          1 MOL1         0.0948
      10    H7      18.718907   20.658368   21.237324 H          1 MOL1         0.0948
      11    C4      19.590750   19.972602   23.095839 C.3        1 MOL1        -0.1435
      12    H8      18.680404   19.457728   23.426153 H          1 MOL1         0.0948
      13    H9      19.545201   20.994386   23.497091 H          1 MOL1         0.0948
      14    C5      20.842188   19.257910   23.664296 C.3        1 MOL1        -0.1435
      15    H10     20.820414   18.193047   23.399831 H          1 MOL1         0.0948
      16    H11     21.734231   19.669292   23.172266 H          1 MOL1         0.0948
      17    C6      21.033155   19.411489   25.199560 C.3        1 MOL1        -0.1500
      18    H12     21.176133   20.472356   25.443260 H          1 MOL1         0.0948
      19    H13     21.978150   18.921595   25.468841 H          1 MOL1         0.0948
      20    C7      19.927423   18.829098   26.116613 C.3        1 MOL1         0.1162
      21    H14     20.327119   18.834431   27.135391 H          1 MOL1         0.0910
      22    C8      19.581074   17.371221   25.767505 C.3        1 MOL1        -0.2491
      23    H15     18.906703   16.945764   26.520703 H          1 MOL1         0.0959
      24    H16     19.085395   17.295109   24.792310 H          1 MOL1         0.0959
      25    H17     20.486318   16.751957   25.743188 H          1 MOL1         0.0959
      26    N1      18.692930   19.686096   26.171396 N.4        1 MOL1        -0.5987
      27    H18     18.912311   20.639101   26.475297 H          1 MOL1         0.3605
      28    H19     18.004146   19.306963   26.827592 H          1 MOL1         0.3605
      29    H20     18.244784   19.749763   25.255063 H          1 MOL1         0.3605
@<TRIPOS>BOND
    1     1     2    1
    2     1     3    1
    3     1     4    1
    4     1     5    1
    5     5     6    1
    6     5     7    1
    7     5     8    1
    8     8     9    1
    9     8    10    1
   10     8    11    1
   11    11    12    1
   12    11    13    1
   13    11    14    1
   14    14    15    1
   15    14    16    1
   16    14    17    1
   17    17    18    1
   18    17    19    1
   19    17    20    1
   20    20    21    1
   21    20    22    1
   22    22    23    1
   23    22    24    1
   24    22    25    1
   25    20    26    1
   26    26    27    1
   27    26    28    1
   28    26    29    1
@<TRIPOS>SUBSTRUCTURE
       1 MOL1            1 RESIDUE      1      MOL     
@<SCITEGIC>MOL_PROPERTY
VM2 Rank
SciTegic.value.IntegerValue
98

@<SCITEGIC>MOL_PROPERTY
Conf_Id
SciTegic.value.IntegerValue
315

@<SCITEGIC>MOL_PROPERTY
Probability
SciTegic.value.DoubleValue
0.02

@<SCITEGIC>MOL_PROPERTY
Sum Probability
SciTegic.value.DoubleValue
99.45

@<SCITEGIC>MOL_PROPERTY
Delta G
SciTegic.value.DoubleValue
3.829

@<SCITEGIC>MOL_PROPERTY
G
SciTegic.value.DoubleValue
37.531

@<SCITEGIC>MOL_PROPERTY
E
SciTegic.value.DoubleValue
-0.572

@<SCITEGIC>MOL_PROPERTY
-TS
SciTegic.value.DoubleValue
38.103

@<SCITEGIC>MOL_PROPERTY
U+W
SciTegic.value.DoubleValue
-24.717

@<SCITEGIC>MOL_PROPERTY
U
SciTegic.value.DoubleValue
27.804

@<SCITEGIC>MOL_PROPERTY
W
SciTegic.value.DoubleValue
-52.521

@<SCITEGIC>MOL_PROPERTY
W(PB)
SciTegic.value.DoubleValue
-54.966

@<SCITEGIC>MOL_PROPERTY
W(SA)
SciTegic.value.DoubleValue
2.445

@<SCITEGIC>MOL_PROPERTY
Valence
SciTegic.value.DoubleValue
5.527

@<SCITEGIC>MOL_PROPERTY
Coulomb
SciTegic.value.DoubleValue
21.305

@<SCITEGIC>MOL_PROPERTY
VdW
SciTegic.value.DoubleValue
0.973

@<SCITEGIC>MOL_PROPERTY
VdW6
SciTegic.value.DoubleValue
-10.820

@<SCITEGIC>MOL_PROPERTY
VdW12
SciTegic.value.DoubleValue
11.793

@<SCITEGIC>MOL_PROPERTY
Bond
SciTegic.value.DoubleValue
0.332

@<SCITEGIC>MOL_PROPERTY
Angle
SciTegic.value.DoubleValue
2.322

@<SCITEGIC>MOL_PROPERTY
Pdih
SciTegic.value.DoubleValue
2.873

@<SCITEGIC>MOL_PROPERTY
Idih
SciTegic.value.DoubleValue
0.000

@<SCITEGIC>MOL_PROPERTY
Tether
SciTegic.value.DoubleValue
0.000

@<TRIPOS>MOLECULE
guest-s15_vm2.mol2 : vm2 ligand conformer 99
          29          28           1
SMALL
USER_CHARGES
 
@<TRIPOS>ATOM
       1    C1      21.022169   20.181484   20.230241 C.3        1 MOL1        -0.2426
       2    H1      20.503370   21.148062   20.270246 H          1 MOL1         0.0959
       3    H2      21.654930   20.092932   21.121981 H          1 MOL1         0.0959
       4    H3      21.685219   20.192309   19.355495 H          1 MOL1         0.0959
       5    C2      20.014616   19.013765   20.130225 C.3        1 MOL1        -0.1410
       6    H4      20.556441   18.057669   20.125217 H          1 MOL1         0.0948
       7    H5      19.494136   19.077213   19.164392 H          1 MOL1         0.0948
       8    C3      18.959846   19.011616   21.262940 C.3        1 MOL1        -0.1435
       9    H6      18.405099   19.959943   21.249544 H          1 MOL1         0.0948
      10    H7      18.226053   18.221061   21.053591 H          1 MOL1         0.0948
      11    C4      19.565623   18.781283   22.668032 C.3        1 MOL1        -0.1435
      12    H8      20.247983   19.605691   22.908492 H          1 MOL1         0.0948
      13    H9      20.159027   17.856717   22.663529 H          1 MOL1         0.0948
      14    C5      18.470104   18.688446   23.755752 C.3        1 MOL1        -0.1435
      15    H10     17.920569   19.638878   23.802730 H          1 MOL1         0.0948
      16    H11     17.737190   17.924008   23.462868 H          1 MOL1         0.0948
      17    C6      19.005984   18.335546   25.166641 C.3        1 MOL1        -0.1500
      18    H12     19.480979   17.345439   25.152975 H          1 MOL1         0.0948
      19    H13     18.137426   18.237133   25.831219 H          1 MOL1         0.0948
      20    C7      19.974831   19.392320   25.750778 C.3        1 MOL1         0.1162
      21    H14     19.822252   20.331541   25.210275 H          1 MOL1         0.0910
      22    C8      21.445465   18.964106   25.594057 C.3        1 MOL1        -0.2491
      23    H15     21.653361   18.050439   26.164891 H          1 MOL1         0.0959
      24    H16     21.699918   18.770918   24.546192 H          1 MOL1         0.0959
      25    H17     22.117461   19.751036   25.957996 H          1 MOL1         0.0959
      26    N1      19.677360   19.687433   27.195335 N.4        1 MOL1        -0.5987
      27    H18     18.717109   20.020689   27.321507 H          1 MOL1         0.3605
      28    H19     20.301614   20.409924   27.565592 H          1 MOL1         0.3605
      29    H20     19.793974   18.854510   27.778910 H          1 MOL1         0.3605
@<TRIPOS>BOND
    1     1     2    1
    2     1     3    1
    3     1     4    1
    4     1     5    1
    5     5     6    1
    6     5     7    1
    7     5     8    1
    8     8     9    1
    9     8    10    1
   10     8    11    1
   11    11    12    1
   12    11    13    1
   13    11    14    1
   14    14    15    1
   15    14    16    1
   16    14    17    1
   17    17    18    1
   18    17    19    1
   19    17    20    1
   20    20    21    1
   21    20    22    1
   22    22    23    1
   23    22    24    1
   24    22    25    1
   25    20    26    1
   26    26    27    1
   27    26    28    1
   28    26    29    1
@<TRIPOS>SUBSTRUCTURE
       1 MOL1            1 RESIDUE      1      MOL     
@<SCITEGIC>MOL_PROPERTY
VM2 Rank
SciTegic.value.IntegerValue
99

@<SCITEGIC>MOL_PROPERTY
Conf_Id
SciTegic.value.IntegerValue
81

@<SCITEGIC>MOL_PROPERTY
Probability
SciTegic.value.DoubleValue
0.02

@<SCITEGIC>MOL_PROPERTY
Sum Probability
SciTegic.value.DoubleValue
99.47

@<SCITEGIC>MOL_PROPERTY
Delta G
SciTegic.value.DoubleValue
3.849

@<SCITEGIC>MOL_PROPERTY
G
SciTegic.value.DoubleValue
37.551

@<SCITEGIC>MOL_PROPERTY
E
SciTegic.value.DoubleValue
-0.112

@<SCITEGIC>MOL_PROPERTY
-TS
SciTegic.value.DoubleValue
37.662

@<SCITEGIC>MOL_PROPERTY
U+W
SciTegic.value.DoubleValue
-24.256

@<SCITEGIC>MOL_PROPERTY
U
SciTegic.value.DoubleValue
27.879

@<SCITEGIC>MOL_PROPERTY
W
SciTegic.value.DoubleValue
-52.135

@<SCITEGIC>MOL_PROPERTY
W(PB)
SciTegic.value.DoubleValue
-54.595

@<SCITEGIC>MOL_PROPERTY
W(SA)
SciTegic.value.DoubleValue
2.460

@<SCITEGIC>MOL_PROPERTY
Valence
SciTegic.value.DoubleValue
6.781

@<SCITEGIC>MOL_PROPERTY
Coulomb
SciTegic.value.DoubleValue
19.866

@<SCITEGIC>MOL_PROPERTY
VdW
SciTegic.value.DoubleValue
1.231

@<SCITEGIC>MOL_PROPERTY
VdW6
SciTegic.value.DoubleValue
-9.740

@<SCITEGIC>MOL_PROPERTY
VdW12
SciTegic.value.DoubleValue
10.971

@<SCITEGIC>MOL_PROPERTY
Bond
SciTegic.value.DoubleValue
0.261

@<SCITEGIC>MOL_PROPERTY
Angle
SciTegic.value.DoubleValue
1.615

@<SCITEGIC>MOL_PROPERTY
Pdih
SciTegic.value.DoubleValue
4.906

@<SCITEGIC>MOL_PROPERTY
Idih
SciTegic.value.DoubleValue
0.000

@<SCITEGIC>MOL_PROPERTY
Tether
SciTegic.value.DoubleValue
0.000

@<TRIPOS>MOLECULE
guest-s15_vm2.mol2 : vm2 ligand conformer 100
          29          28           1
SMALL
USER_CHARGES
 
@<TRIPOS>ATOM
       1    C1      20.859309   19.990717   19.804631 C.3        1 MOL1        -0.2426
       2    H1      20.569155   19.398725   18.926798 H          1 MOL1         0.0959
       3    H2      20.997890   21.029969   19.479404 H          1 MOL1         0.0959
       4    H3      21.827414   19.617913   20.163789 H          1 MOL1         0.0959
       5    C2      19.787193   19.904369   20.911297 C.3        1 MOL1        -0.1410
       6    H4      18.841466   20.315694   20.531665 H          1 MOL1         0.0948
       7    H5      20.087795   20.540269   21.752481 H          1 MOL1         0.0948
       8    C3      19.566541   18.445345   21.378219 C.3        1 MOL1        -0.1435
       9    H6      19.237050   17.856400   20.511050 H          1 MOL1         0.0948
      10    H7      20.516209   17.998995   21.703762 H          1 MOL1         0.0948
      11    C4      18.501063   18.308499   22.497041 C.3        1 MOL1        -0.1435
      12    H8      17.946100   17.375436   22.327263 H          1 MOL1         0.0948
      13    H9      17.757091   19.112974   22.416578 H          1 MOL1         0.0948
      14    C5      19.074986   18.253331   23.936366 C.3        1 MOL1        -0.1435
      15    H10     18.240445   18.073275   24.626355 H          1 MOL1         0.0948
      16    H11     19.737768   17.381914   24.021272 H          1 MOL1         0.0948
      17    C6      19.835497   19.535949   24.365821 C.3        1 MOL1        -0.1500
      18    H12     19.215664   20.415401   24.148017 H          1 MOL1         0.0948
      19    H13     20.744465   19.639627   23.760357 H          1 MOL1         0.0948
      20    C7      20.243598   19.580372   25.857259 C.3        1 MOL1         0.1162
      21    H14     20.765731   20.527751   26.023415 H          1 MOL1         0.0910
      22    C8      21.212837   18.443383   26.224712 C.3        1 MOL1        -0.2491
      23    H15     20.726025   17.462389   26.169008 H          1 MOL1         0.0959
      24    H16     22.078851   18.436552   25.551238 H          1 MOL1         0.0959
      25    H17     21.587633   18.574092   27.247273 H          1 MOL1         0.0959
      26    N1      19.054977   19.594036   26.778656 N.4        1 MOL1        -0.5987
      27    H18     18.425793   20.374095   26.568164 H          1 MOL1         0.3605
      28    H19     19.341515   19.687196   27.757353 H          1 MOL1         0.3605
      29    H20     18.512873   18.730261   26.698463 H          1 MOL1         0.3605
@<TRIPOS>BOND
    1     1     2    1
    2     1     3    1
    3     1     4    1
    4     1     5    1
    5     5     6    1
    6     5     7    1
    7     5     8    1
    8     8     9    1
    9     8    10    1
   10     8    11    1
   11    11    12    1
   12    11    13    1
   13    11    14    1
   14    14    15    1
   15    14    16    1
   16    14    17    1
   17    17    18    1
   18    17    19    1
   19    17    20    1
   20    20    21    1
   21    20    22    1
   22    22    23    1
   23    22    24    1
   24    22    25    1
   25    20    26    1
   26    26    27    1
   27    26    28    1
   28    26    29    1
@<TRIPOS>SUBSTRUCTURE
       1 MOL1            1 RESIDUE      1      MOL     
@<SCITEGIC>MOL_PROPERTY
VM2 Rank
SciTegic.value.IntegerValue
100

@<SCITEGIC>MOL_PROPERTY
Conf_Id
SciTegic.value.IntegerValue
101

@<SCITEGIC>MOL_PROPERTY
Probability
SciTegic.value.DoubleValue
0.02

@<SCITEGIC>MOL_PROPERTY
Sum Probability
SciTegic.value.DoubleValue
99.49

@<SCITEGIC>MOL_PROPERTY
Delta G
SciTegic.value.DoubleValue
3.861

@<SCITEGIC>MOL_PROPERTY
G
SciTegic.value.DoubleValue
37.563

@<SCITEGIC>MOL_PROPERTY
E
SciTegic.value.DoubleValue
-0.372

@<SCITEGIC>MOL_PROPERTY
-TS
SciTegic.value.DoubleValue
37.935

@<SCITEGIC>MOL_PROPERTY
U+W
SciTegic.value.DoubleValue
-24.517

@<SCITEGIC>MOL_PROPERTY
U
SciTegic.value.DoubleValue
27.916

@<SCITEGIC>MOL_PROPERTY
W
SciTegic.value.DoubleValue
-52.433

@<SCITEGIC>MOL_PROPERTY
W(PB)
SciTegic.value.DoubleValue
-54.866

@<SCITEGIC>MOL_PROPERTY
W(SA)
SciTegic.value.DoubleValue
2.433

@<SCITEGIC>MOL_PROPERTY
Valence
SciTegic.value.DoubleValue
6.693

@<SCITEGIC>MOL_PROPERTY
Coulomb
SciTegic.value.DoubleValue
20.015

@<SCITEGIC>MOL_PROPERTY
VdW
SciTegic.value.DoubleValue
1.208

@<SCITEGIC>MOL_PROPERTY
VdW6
SciTegic.value.DoubleValue
-10.294

@<SCITEGIC>MOL_PROPERTY
VdW12
SciTegic.value.DoubleValue
11.503

@<SCITEGIC>MOL_PROPERTY
Bond
SciTegic.value.DoubleValue
0.312

@<SCITEGIC>MOL_PROPERTY
Angle
SciTegic.value.DoubleValue
1.939

@<SCITEGIC>MOL_PROPERTY
Pdih
SciTegic.value.DoubleValue
4.441

@<SCITEGIC>MOL_PROPERTY
Idih
SciTegic.value.DoubleValue
0.000

@<SCITEGIC>MOL_PROPERTY
Tether
SciTegic.value.DoubleValue
0.000

@<TRIPOS>MOLECULE
guest-s15_vm2.mol2 : vm2 ligand conformer 101
          29          28           1
SMALL
USER_CHARGES
 
@<TRIPOS>ATOM
       1    C1      19.626966   20.061005   19.701618 C.3        1 MOL1        -0.2426
       2    H1      20.069805   20.191724   18.705758 H          1 MOL1         0.0959
       3    H2      18.772458   19.381907   19.594318 H          1 MOL1         0.0959
       4    H3      19.251064   21.037976   20.032120 H          1 MOL1         0.0959
       5    C2      20.677296   19.506121   20.690684 C.3        1 MOL1        -0.1410
       6    H4      21.563058   20.156055   20.662252 H          1 MOL1         0.0948
       7    H5      21.013479   18.514177   20.357865 H          1 MOL1         0.0948
       8    C3      20.170378   19.426061   22.151065 C.3        1 MOL1        -0.1435
       9    H6      21.029129   19.177958   22.787153 H          1 MOL1         0.0948
      10    H7      19.811514   20.414217   22.469820 H          1 MOL1         0.0948
      11    C4      19.060975   18.366058   22.362240 C.3        1 MOL1        -0.1435
      12    H8      19.462728   17.369623   22.132649 H          1 MOL1         0.0948
      13    H9      18.247727   18.538544   21.646152 H          1 MOL1         0.0948
      14    C5      18.439948   18.356801   23.783301 C.3        1 MOL1        -0.1435
      15    H10     17.923632   19.306848   23.970970 H          1 MOL1         0.0948
      16    H11     17.652656   17.590334   23.791335 H          1 MOL1         0.0948
      17    C6      19.433859   18.031389   24.931418 C.3        1 MOL1        -0.1500
      18    H12     20.152878   17.278462   24.582129 H          1 MOL1         0.0948
      19    H13     18.880327   17.558949   25.753818 H          1 MOL1         0.0948
      20    C7      20.188186   19.257359   25.496853 C.3        1 MOL1         0.1162
      21    H14     20.675684   19.785280   24.674344 H          1 MOL1         0.0910
      22    C8      21.274918   18.804589   26.484643 C.3        1 MOL1        -0.2491
      23    H15     21.834458   19.666528   26.868551 H          1 MOL1         0.0959
      24    H16     20.838302   18.272204   27.338979 H          1 MOL1         0.0959
      25    H17     21.992032   18.134301   25.994517 H          1 MOL1         0.0959
      26    N1      19.263473   20.246616   26.152177 N.4        1 MOL1        -0.5987
      27    H18     19.775320   21.059767   26.506301 H          1 MOL1         0.3605
      28    H19     18.769706   19.826797   26.944315 H          1 MOL1         0.3605
      29    H20     18.557304   20.590452   25.496047 H          1 MOL1         0.3605
@<TRIPOS>BOND
    1     1     2    1
    2     1     3    1
    3     1     4    1
    4     1     5    1
    5     5     6    1
    6     5     7    1
    7     5     8    1
    8     8     9    1
    9     8    10    1
   10     8    11    1
   11    11    12    1
   12    11    13    1
   13    11    14    1
   14    14    15    1
   15    14    16    1
   16    14    17    1
   17    17    18    1
   18    17    19    1
   19    17    20    1
   20    20    21    1
   21    20    22    1
   22    22    23    1
   23    22    24    1
   24    22    25    1
   25    20    26    1
   26    26    27    1
   27    26    28    1
   28    26    29    1
@<TRIPOS>SUBSTRUCTURE
       1 MOL1            1 RESIDUE      1      MOL     
@<SCITEGIC>MOL_PROPERTY
VM2 Rank
SciTegic.value.IntegerValue
101

@<SCITEGIC>MOL_PROPERTY
Conf_Id
SciTegic.value.IntegerValue
1367

@<SCITEGIC>MOL_PROPERTY
Probability
SciTegic.value.DoubleValue
0.02

@<SCITEGIC>MOL_PROPERTY
Sum Probability
SciTegic.value.DoubleValue
99.50

@<SCITEGIC>MOL_PROPERTY
Delta G
SciTegic.value.DoubleValue
3.864

@<SCITEGIC>MOL_PROPERTY
G
SciTegic.value.DoubleValue
37.566

@<SCITEGIC>MOL_PROPERTY
E
SciTegic.value.DoubleValue
-0.216

@<SCITEGIC>MOL_PROPERTY
-TS
SciTegic.value.DoubleValue
37.782

@<SCITEGIC>MOL_PROPERTY
U+W
SciTegic.value.DoubleValue
-24.361

@<SCITEGIC>MOL_PROPERTY
U
SciTegic.value.DoubleValue
28.056

@<SCITEGIC>MOL_PROPERTY
W
SciTegic.value.DoubleValue
-52.416

@<SCITEGIC>MOL_PROPERTY
W(PB)
SciTegic.value.DoubleValue
-54.880

@<SCITEGIC>MOL_PROPERTY
W(SA)
SciTegic.value.DoubleValue
2.464

@<SCITEGIC>MOL_PROPERTY
Valence
SciTegic.value.DoubleValue
6.325

@<SCITEGIC>MOL_PROPERTY
Coulomb
SciTegic.value.DoubleValue
20.690

@<SCITEGIC>MOL_PROPERTY
VdW
SciTegic.value.DoubleValue
1.041

@<SCITEGIC>MOL_PROPERTY
VdW6
SciTegic.value.DoubleValue
-10.427

@<SCITEGIC>MOL_PROPERTY
VdW12
SciTegic.value.DoubleValue
11.467

@<SCITEGIC>MOL_PROPERTY
Bond
SciTegic.value.DoubleValue
0.315

@<SCITEGIC>MOL_PROPERTY
Angle
SciTegic.value.DoubleValue
2.081

@<SCITEGIC>MOL_PROPERTY
Pdih
SciTegic.value.DoubleValue
3.930

@<SCITEGIC>MOL_PROPERTY
Idih
SciTegic.value.DoubleValue
0.000

@<SCITEGIC>MOL_PROPERTY
Tether
SciTegic.value.DoubleValue
0.000

@<TRIPOS>MOLECULE
guest-s15_vm2.mol2 : vm2 ligand conformer 102
          29          28           1
SMALL
USER_CHARGES
 
@<TRIPOS>ATOM
       1    C1      18.754845   19.029631   19.620632 C.3        1 MOL1        -0.2426
       2    H1      17.955504   18.892868   20.359420 H          1 MOL1         0.0959
       3    H2      18.785273   20.089971   19.338175 H          1 MOL1         0.0959
       4    H3      18.481334   18.452097   18.728124 H          1 MOL1         0.0959
       5    C2      20.121565   18.561514   20.169636 C.3        1 MOL1        -0.1410
       6    H4      20.861804   18.602705   19.358401 H          1 MOL1         0.0948
       7    H5      20.056430   17.507320   20.473192 H          1 MOL1         0.0948
       8    C3      20.634517   19.416422   21.353471 C.3        1 MOL1        -0.1435
       9    H6      21.651331   19.085955   21.606716 H          1 MOL1         0.0948
      10    H7      20.719751   20.465589   21.038501 H          1 MOL1         0.0948
      11    C4      19.743496   19.320390   22.614894 C.3        1 MOL1        -0.1435
      12    H8      19.609373   18.265805   22.883290 H          1 MOL1         0.0948
      13    H9      18.744214   19.717773   22.394021 H          1 MOL1         0.0948
      14    C5      20.346751   20.110332   23.802371 C.3        1 MOL1        -0.1435
      15    H10     21.372496   19.774108   24.007801 H          1 MOL1         0.0948
      16    H11     20.428165   21.164779   23.503922 H          1 MOL1         0.0948
      17    C6      19.491503   20.029960   25.094749 C.3        1 MOL1        -0.1500
      18    H12     18.434821   19.868617   24.843398 H          1 MOL1         0.0948
      19    H13     19.534998   21.010990   25.586087 H          1 MOL1         0.0948
      20    C7      19.963655   18.974067   26.123174 C.3        1 MOL1         0.1162
      21    H14     21.002357   19.196309   26.386391 H          1 MOL1         0.0910
      22    C8      19.904869   17.538015   25.576007 C.3        1 MOL1        -0.2491
      23    H15     18.901143   17.293730   25.206623 H          1 MOL1         0.0959
      24    H16     20.621681   17.399419   24.758457 H          1 MOL1         0.0959
      25    H17     20.165410   16.814753   26.358504 H          1 MOL1         0.0959
      26    N1      19.174799   19.075670   27.399065 N.4        1 MOL1        -0.5987
      27    H18     19.513354   18.412177   28.101790 H          1 MOL1         0.3605
      28    H19     18.183324   18.875288   27.242410 H          1 MOL1         0.3605
      29    H20     19.238799   20.012167   27.808640 H          1 MOL1         0.3605
@<TRIPOS>BOND
    1     1     2    1
    2     1     3    1
    3     1     4    1
    4     1     5    1
    5     5     6    1
    6     5     7    1
    7     5     8    1
    8     8     9    1
    9     8    10    1
   10     8    11    1
   11    11    12    1
   12    11    13    1
   13    11    14    1
   14    14    15    1
   15    14    16    1
   16    14    17    1
   17    17    18    1
   18    17    19    1
   19    17    20    1
   20    20    21    1
   21    20    22    1
   22    22    23    1
   23    22    24    1
   24    22    25    1
   25    20    26    1
   26    26    27    1
   27    26    28    1
   28    26    29    1
@<TRIPOS>SUBSTRUCTURE
       1 MOL1            1 RESIDUE      1      MOL     
@<SCITEGIC>MOL_PROPERTY
VM2 Rank
SciTegic.value.IntegerValue
102

@<SCITEGIC>MOL_PROPERTY
Conf_Id
SciTegic.value.IntegerValue
284

@<SCITEGIC>MOL_PROPERTY
Probability
SciTegic.value.DoubleValue
0.02

@<SCITEGIC>MOL_PROPERTY
Sum Probability
SciTegic.value.DoubleValue
99.52

@<SCITEGIC>MOL_PROPERTY
Delta G
SciTegic.value.DoubleValue
3.872

@<SCITEGIC>MOL_PROPERTY
G
SciTegic.value.DoubleValue
37.574

@<SCITEGIC>MOL_PROPERTY
E
SciTegic.value.DoubleValue
-0.213

@<SCITEGIC>MOL_PROPERTY
-TS
SciTegic.value.DoubleValue
37.787

@<SCITEGIC>MOL_PROPERTY
U+W
SciTegic.value.DoubleValue
-24.357

@<SCITEGIC>MOL_PROPERTY
U
SciTegic.value.DoubleValue
27.696

@<SCITEGIC>MOL_PROPERTY
W
SciTegic.value.DoubleValue
-52.053

@<SCITEGIC>MOL_PROPERTY
W(PB)
SciTegic.value.DoubleValue
-54.526

@<SCITEGIC>MOL_PROPERTY
W(SA)
SciTegic.value.DoubleValue
2.474

@<SCITEGIC>MOL_PROPERTY
Valence
SciTegic.value.DoubleValue
6.761

@<SCITEGIC>MOL_PROPERTY
Coulomb
SciTegic.value.DoubleValue
19.663

@<SCITEGIC>MOL_PROPERTY
VdW
SciTegic.value.DoubleValue
1.272

@<SCITEGIC>MOL_PROPERTY
VdW6
SciTegic.value.DoubleValue
-9.717

@<SCITEGIC>MOL_PROPERTY
VdW12
SciTegic.value.DoubleValue
10.988

@<SCITEGIC>MOL_PROPERTY
Bond
SciTegic.value.DoubleValue
0.286

@<SCITEGIC>MOL_PROPERTY
Angle
SciTegic.value.DoubleValue
1.902

@<SCITEGIC>MOL_PROPERTY
Pdih
SciTegic.value.DoubleValue
4.573

@<SCITEGIC>MOL_PROPERTY
Idih
SciTegic.value.DoubleValue
0.000

@<SCITEGIC>MOL_PROPERTY
Tether
SciTegic.value.DoubleValue
0.000

@<TRIPOS>MOLECULE
guest-s15_vm2.mol2 : vm2 ligand conformer 103
          29          28           1
SMALL
USER_CHARGES
 
@<TRIPOS>ATOM
       1    C1      21.226001   19.405741   20.253823 C.3        1 MOL1        -0.2426
       2    H1      22.255348   19.784404   20.299477 H          1 MOL1         0.0959
       3    H2      21.271674   18.329928   20.039899 H          1 MOL1         0.0959
       4    H3      20.722161   19.900500   19.413235 H          1 MOL1         0.0959
       5    C2      20.486704   19.675696   21.581240 C.3        1 MOL1        -0.1410
       6    H4      20.485519   20.756286   21.780995 H          1 MOL1         0.0948
       7    H5      21.045040   19.204809   22.397721 H          1 MOL1         0.0948
       8    C3      19.030793   19.152302   21.537623 C.3        1 MOL1        -0.1435
       9    H6      18.526578   19.626185   20.684009 H          1 MOL1         0.0948
      10    H7      19.019046   18.072812   21.333822 H          1 MOL1         0.0948
      11    C4      18.208946   19.463331   22.816163 C.3        1 MOL1        -0.1435
      12    H8      17.164070   19.615431   22.511929 H          1 MOL1         0.0948
      13    H9      18.524782   20.420326   23.252139 H          1 MOL1         0.0948
      14    C5      18.212912   18.338433   23.886435 C.3        1 MOL1        -0.1435
      15    H10     17.497820   18.603894   24.676527 H          1 MOL1         0.0948
      16    H11     17.819983   17.416707   23.435718 H          1 MOL1         0.0948
      17    C6      19.587676   18.028472   24.532172 C.3        1 MOL1        -0.1500
      18    H12     20.249917   17.591533   23.774712 H          1 MOL1         0.0948
      19    H13     19.454136   17.248940   25.293900 H          1 MOL1         0.0948
      20    C7      20.270426   19.255205   25.176768 C.3        1 MOL1         0.1162
      21    H14     20.382547   20.028989   24.411796 H          1 MOL1         0.0910
      22    C8      21.669644   18.881330   25.690053 C.3        1 MOL1        -0.2491
      23    H15     22.295458   18.500096   24.873521 H          1 MOL1         0.0959
      24    H16     22.174321   19.757804   26.114863 H          1 MOL1         0.0959
      25    H17     21.614033   18.108750   26.467186 H          1 MOL1         0.0959
      26    N1      19.442898   19.855491   26.279723 N.4        1 MOL1        -0.5987
      27    H18     19.298998   19.188405   27.042436 H          1 MOL1         0.3605
      28    H19     18.520054   20.138452   25.938928 H          1 MOL1         0.3605
      29    H20     19.892755   20.684839   26.677646 H          1 MOL1         0.3605
@<TRIPOS>BOND
    1     1     2    1
    2     1     3    1
    3     1     4    1
    4     1     5    1
    5     5     6    1
    6     5     7    1
    7     5     8    1
    8     8     9    1
    9     8    10    1
   10     8    11    1
   11    11    12    1
   12    11    13    1
   13    11    14    1
   14    14    15    1
   15    14    16    1
   16    14    17    1
   17    17    18    1
   18    17    19    1
   19    17    20    1
   20    20    21    1
   21    20    22    1
   22    22    23    1
   23    22    24    1
   24    22    25    1
   25    20    26    1
   26    26    27    1
   27    26    28    1
   28    26    29    1
@<TRIPOS>SUBSTRUCTURE
       1 MOL1            1 RESIDUE      1      MOL     
@<SCITEGIC>MOL_PROPERTY
VM2 Rank
SciTegic.value.IntegerValue
103

@<SCITEGIC>MOL_PROPERTY
Conf_Id
SciTegic.value.IntegerValue
323

@<SCITEGIC>MOL_PROPERTY
Probability
SciTegic.value.DoubleValue
0.02

@<SCITEGIC>MOL_PROPERTY
Sum Probability
SciTegic.value.DoubleValue
99.54

@<SCITEGIC>MOL_PROPERTY
Delta G
SciTegic.value.DoubleValue
3.881

@<SCITEGIC>MOL_PROPERTY
G
SciTegic.value.DoubleValue
37.583

@<SCITEGIC>MOL_PROPERTY
E
SciTegic.value.DoubleValue
-0.646

@<SCITEGIC>MOL_PROPERTY
-TS
SciTegic.value.DoubleValue
38.229

@<SCITEGIC>MOL_PROPERTY
U+W
SciTegic.value.DoubleValue
-24.791

@<SCITEGIC>MOL_PROPERTY
U
SciTegic.value.DoubleValue
27.761

@<SCITEGIC>MOL_PROPERTY
W
SciTegic.value.DoubleValue
-52.552

@<SCITEGIC>MOL_PROPERTY
W(PB)
SciTegic.value.DoubleValue
-54.968

@<SCITEGIC>MOL_PROPERTY
W(SA)
SciTegic.value.DoubleValue
2.416

@<SCITEGIC>MOL_PROPERTY
Valence
SciTegic.value.DoubleValue
6.483

@<SCITEGIC>MOL_PROPERTY
Coulomb
SciTegic.value.DoubleValue
20.860

@<SCITEGIC>MOL_PROPERTY
VdW
SciTegic.value.DoubleValue
0.418

@<SCITEGIC>MOL_PROPERTY
VdW6
SciTegic.value.DoubleValue
-11.358

@<SCITEGIC>MOL_PROPERTY
VdW12
SciTegic.value.DoubleValue
11.776

@<SCITEGIC>MOL_PROPERTY
Bond
SciTegic.value.DoubleValue
0.310

@<SCITEGIC>MOL_PROPERTY
Angle
SciTegic.value.DoubleValue
2.147

@<SCITEGIC>MOL_PROPERTY
Pdih
SciTegic.value.DoubleValue
4.026

@<SCITEGIC>MOL_PROPERTY
Idih
SciTegic.value.DoubleValue
0.000

@<SCITEGIC>MOL_PROPERTY
Tether
SciTegic.value.DoubleValue
0.000

@<TRIPOS>MOLECULE
guest-s15_vm2.mol2 : vm2 ligand conformer 104
          29          28           1
SMALL
USER_CHARGES
 
@<TRIPOS>ATOM
       1    C1      20.579021   18.267187   19.801231 C.3        1 MOL1        -0.2426
       2    H1      20.479285   18.992920   18.983564 H          1 MOL1         0.0959
       3    H2      21.578809   17.819028   19.733534 H          1 MOL1         0.0959
       4    H3      19.840764   17.470172   19.643170 H          1 MOL1         0.0959
       5    C2      20.377609   18.945014   21.173009 C.3        1 MOL1        -0.1410
       6    H4      21.145571   19.718261   21.313631 H          1 MOL1         0.0948
       7    H5      20.522304   18.195491   21.962216 H          1 MOL1         0.0948
       8    C3      18.971510   19.574930   21.296647 C.3        1 MOL1        -0.1435
       9    H6      18.797717   20.231990   20.433320 H          1 MOL1         0.0948
      10    H7      18.211480   18.783819   21.235782 H          1 MOL1         0.0948
      11    C4      18.750597   20.402198   22.589457 C.3        1 MOL1        -0.1435
      12    H8      17.737995   20.826106   22.540981 H          1 MOL1         0.0948
      13    H9      19.431052   21.264640   22.606626 H          1 MOL1         0.0948
      14    C5      18.872983   19.591031   23.905728 C.3        1 MOL1        -0.1435
      15    H10     18.124659   19.972447   24.612980 H          1 MOL1         0.0948
      16    H11     18.607437   18.543034   23.716544 H          1 MOL1         0.0948
      17    C6      20.276854   19.702617   24.562856 C.3        1 MOL1        -0.1500
      18    H12     20.482090   20.757944   24.785194 H          1 MOL1         0.0948
      19    H13     21.054015   19.393456   23.855073 H          1 MOL1         0.0948
      20    C7      20.450719   18.889015   25.866822 C.3        1 MOL1         0.1162
      21    H14     21.451289   19.105668   26.253712 H          1 MOL1         0.0910
      22    C8      20.368893   17.373072   25.616095 C.3        1 MOL1        -0.2491
      23    H15     19.360354   17.063954   25.317462 H          1 MOL1         0.0959
      24    H16     21.069212   17.069638   24.828033 H          1 MOL1         0.0959
      25    H17     20.632449   16.819711   26.525776 H          1 MOL1         0.0959
      26    N1      19.487813   19.310936   26.942154 N.4        1 MOL1        -0.5987
      27    H18     19.568024   20.311199   27.146390 H          1 MOL1         0.3605
      28    H19     19.657863   18.805117   27.816134 H          1 MOL1         0.3605
      29    H20     18.519940   19.129056   26.665178 H          1 MOL1         0.3605
@<TRIPOS>BOND
    1     1     2    1
    2     1     3    1
    3     1     4    1
    4     1     5    1
    5     5     6    1
    6     5     7    1
    7     5     8    1
    8     8     9    1
    9     8    10    1
   10     8    11    1
   11    11    12    1
   12    11    13    1
   13    11    14    1
   14    14    15    1
   15    14    16    1
   16    14    17    1
   17    17    18    1
   18    17    19    1
   19    17    20    1
   20    20    21    1
   21    20    22    1
   22    22    23    1
   23    22    24    1
   24    22    25    1
   25    20    26    1
   26    26    27    1
   27    26    28    1
   28    26    29    1
@<TRIPOS>SUBSTRUCTURE
       1 MOL1            1 RESIDUE      1      MOL     
@<SCITEGIC>MOL_PROPERTY
VM2 Rank
SciTegic.value.IntegerValue
104

@<SCITEGIC>MOL_PROPERTY
Conf_Id
SciTegic.value.IntegerValue
318

@<SCITEGIC>MOL_PROPERTY
Probability
SciTegic.value.DoubleValue
0.02

@<SCITEGIC>MOL_PROPERTY
Sum Probability
SciTegic.value.DoubleValue
99.55

@<SCITEGIC>MOL_PROPERTY
Delta G
SciTegic.value.DoubleValue
3.901

@<SCITEGIC>MOL_PROPERTY
G
SciTegic.value.DoubleValue
37.603

@<SCITEGIC>MOL_PROPERTY
E
SciTegic.value.DoubleValue
-0.307

@<SCITEGIC>MOL_PROPERTY
-TS
SciTegic.value.DoubleValue
37.910

@<SCITEGIC>MOL_PROPERTY
U+W
SciTegic.value.DoubleValue
-24.452

@<SCITEGIC>MOL_PROPERTY
U
SciTegic.value.DoubleValue
27.947

@<SCITEGIC>MOL_PROPERTY
W
SciTegic.value.DoubleValue
-52.399

@<SCITEGIC>MOL_PROPERTY
W(PB)
SciTegic.value.DoubleValue
-54.845

@<SCITEGIC>MOL_PROPERTY
W(SA)
SciTegic.value.DoubleValue
2.447

@<SCITEGIC>MOL_PROPERTY
Valence
SciTegic.value.DoubleValue
6.732

@<SCITEGIC>MOL_PROPERTY
Coulomb
SciTegic.value.DoubleValue
20.067

@<SCITEGIC>MOL_PROPERTY
VdW
SciTegic.value.DoubleValue
1.149

@<SCITEGIC>MOL_PROPERTY
VdW6
SciTegic.value.DoubleValue
-10.427

@<SCITEGIC>MOL_PROPERTY
VdW12
SciTegic.value.DoubleValue
11.576

@<SCITEGIC>MOL_PROPERTY
Bond
SciTegic.value.DoubleValue
0.324

@<SCITEGIC>MOL_PROPERTY
Angle
SciTegic.value.DoubleValue
1.942

@<SCITEGIC>MOL_PROPERTY
Pdih
SciTegic.value.DoubleValue
4.466

@<SCITEGIC>MOL_PROPERTY
Idih
SciTegic.value.DoubleValue
0.000

@<SCITEGIC>MOL_PROPERTY
Tether
SciTegic.value.DoubleValue
0.000

@<TRIPOS>MOLECULE
guest-s15_vm2.mol2 : vm2 ligand conformer 105
          29          28           1
SMALL
USER_CHARGES
 
@<TRIPOS>ATOM
       1    C1      19.298356   18.338625   20.052298 C.3        1 MOL1        -0.2426
       2    H1      19.428573   17.889634   19.059169 H          1 MOL1         0.0959
       3    H2      19.602763   17.589184   20.793312 H          1 MOL1         0.0959
       4    H3      18.229994   18.551134   20.187489 H          1 MOL1         0.0959
       5    C2      20.142342   19.625702   20.177321 C.3        1 MOL1        -0.1410
       6    H4      19.916831   20.279224   19.323059 H          1 MOL1         0.0948
       7    H5      21.208252   19.371861   20.093103 H          1 MOL1         0.0948
       8    C3      19.900350   20.423216   21.484207 C.3        1 MOL1        -0.1435
       9    H6      20.512100   21.334542   21.432842 H          1 MOL1         0.0948
      10    H7      18.858270   20.768479   21.528605 H          1 MOL1         0.0948
      11    C4      20.272631   19.663639   22.784033 C.3        1 MOL1        -0.1435
      12    H8      20.698463   20.387310   23.491590 H          1 MOL1         0.0948
      13    H9      21.068505   18.934779   22.578024 H          1 MOL1         0.0948
      14    C5      19.061289   18.966000   23.454540 C.3        1 MOL1        -0.1435
      15    H10     18.314675   19.718492   23.740985 H          1 MOL1         0.0948
      16    H11     18.559965   18.310579   22.732616 H          1 MOL1         0.0948
      17    C6      19.455706   18.116111   24.689458 C.3        1 MOL1        -0.1500
      18    H12     20.123054   17.307773   24.362058 H          1 MOL1         0.0948
      19    H13     18.557183   17.628207   25.090021 H          1 MOL1         0.0948
      20    C7      20.148355   18.915368   25.815837 C.3        1 MOL1         0.1162
      21    H14     21.049955   19.379435   25.405312 H          1 MOL1         0.0910
      22    C8      20.570256   17.976087   26.956660 C.3        1 MOL1        -0.2491
      23    H15     19.699625   17.485953   27.410183 H          1 MOL1         0.0959
      24    H16     21.248233   17.196056   26.588365 H          1 MOL1         0.0959
      25    H17     21.097415   18.531646   27.742050 H          1 MOL1         0.0959
      26    N1      19.286714   20.031252   26.339646 N.4        1 MOL1        -0.5987
      27    H18     19.029856   20.683077   25.593289 H          1 MOL1         0.3605
      28    H19     19.769284   20.568335   27.065754 H          1 MOL1         0.3605
      29    H20     18.419788   19.672037   26.748116 H          1 MOL1         0.3605
@<TRIPOS>BOND
    1     1     2    1
    2     1     3    1
    3     1     4    1
    4     1     5    1
    5     5     6    1
    6     5     7    1
    7     5     8    1
    8     8     9    1
    9     8    10    1
   10     8    11    1
   11    11    12    1
   12    11    13    1
   13    11    14    1
   14    14    15    1
   15    14    16    1
   16    14    17    1
   17    17    18    1
   18    17    19    1
   19    17    20    1
   20    20    21    1
   21    20    22    1
   22    22    23    1
   23    22    24    1
   24    22    25    1
   25    20    26    1
   26    26    27    1
   27    26    28    1
   28    26    29    1
@<TRIPOS>SUBSTRUCTURE
       1 MOL1            1 RESIDUE      1      MOL     
@<SCITEGIC>MOL_PROPERTY
VM2 Rank
SciTegic.value.IntegerValue
105

@<SCITEGIC>MOL_PROPERTY
Conf_Id
SciTegic.value.IntegerValue
192

@<SCITEGIC>MOL_PROPERTY
Probability
SciTegic.value.DoubleValue
0.02

@<SCITEGIC>MOL_PROPERTY
Sum Probability
SciTegic.value.DoubleValue
99.57

@<SCITEGIC>MOL_PROPERTY
Delta G
SciTegic.value.DoubleValue
3.905

@<SCITEGIC>MOL_PROPERTY
G
SciTegic.value.DoubleValue
37.607

@<SCITEGIC>MOL_PROPERTY
E
SciTegic.value.DoubleValue
-0.356

@<SCITEGIC>MOL_PROPERTY
-TS
SciTegic.value.DoubleValue
37.963

@<SCITEGIC>MOL_PROPERTY
U+W
SciTegic.value.DoubleValue
-24.500

@<SCITEGIC>MOL_PROPERTY
U
SciTegic.value.DoubleValue
27.887

@<SCITEGIC>MOL_PROPERTY
W
SciTegic.value.DoubleValue
-52.387

@<SCITEGIC>MOL_PROPERTY
W(PB)
SciTegic.value.DoubleValue
-54.850

@<SCITEGIC>MOL_PROPERTY
W(SA)
SciTegic.value.DoubleValue
2.462

@<SCITEGIC>MOL_PROPERTY
Valence
SciTegic.value.DoubleValue
6.471

@<SCITEGIC>MOL_PROPERTY
Coulomb
SciTegic.value.DoubleValue
20.362

@<SCITEGIC>MOL_PROPERTY
VdW
SciTegic.value.DoubleValue
1.054

@<SCITEGIC>MOL_PROPERTY
VdW6
SciTegic.value.DoubleValue
-10.398

@<SCITEGIC>MOL_PROPERTY
VdW12
SciTegic.value.DoubleValue
11.452

@<SCITEGIC>MOL_PROPERTY
Bond
SciTegic.value.DoubleValue
0.305

@<SCITEGIC>MOL_PROPERTY
Angle
SciTegic.value.DoubleValue
1.802

@<SCITEGIC>MOL_PROPERTY
Pdih
SciTegic.value.DoubleValue
4.363

@<SCITEGIC>MOL_PROPERTY
Idih
SciTegic.value.DoubleValue
0.000

@<SCITEGIC>MOL_PROPERTY
Tether
SciTegic.value.DoubleValue
0.000

@<TRIPOS>MOLECULE
guest-s15_vm2.mol2 : vm2 ligand conformer 106
          29          28           1
SMALL
USER_CHARGES
 
@<TRIPOS>ATOM
       1    C1      19.014360   20.800284   20.325666 C.3        1 MOL1        -0.2426
       2    H1      18.506567   21.022520   21.272171 H          1 MOL1         0.0959
       3    H2      19.948278   21.376218   20.291737 H          1 MOL1         0.0959
       4    H3      18.368969   21.159490   19.513638 H          1 MOL1         0.0959
       5    C2      19.288443   19.287336   20.168680 C.3        1 MOL1        -0.1410
       6    H4      19.677550   19.101667   19.157793 H          1 MOL1         0.0948
       7    H5      18.343506   18.730940   20.241132 H          1 MOL1         0.0948
       8    C3      20.302231   18.734166   21.199184 C.3        1 MOL1        -0.1435
       9    H6      20.521113   17.688176   20.943705 H          1 MOL1         0.0948
      10    H7      21.251792   19.279643   21.109145 H          1 MOL1         0.0948
      11    C4      19.796529   18.804122   22.660004 C.3        1 MOL1        -0.1435
      12    H8      18.826645   18.293294   22.734735 H          1 MOL1         0.0948
      13    H9      19.641862   19.854172   22.931988 H          1 MOL1         0.0948
      14    C5      20.802640   18.160762   23.643903 C.3        1 MOL1        -0.1435
      15    H10     21.084568   17.169064   23.263883 H          1 MOL1         0.0948
      16    H11     21.727335   18.754146   23.661045 H          1 MOL1         0.0948
      17    C6      20.276191   17.983015   25.092541 C.3        1 MOL1        -0.1500
      18    H12     21.044655   17.429202   25.648302 H          1 MOL1         0.0948
      19    H13     19.384882   17.341767   25.095496 H          1 MOL1         0.0948
      20    C7      19.978733   19.303044   25.842652 C.3        1 MOL1         0.1162
      21    H14     20.753803   20.030483   25.582574 H          1 MOL1         0.0910
      22    C8      20.021521   19.076698   27.362930 C.3        1 MOL1        -0.2491
      23    H15     19.826776   20.012707   27.900938 H          1 MOL1         0.0959
      24    H16     19.271078   18.339716   27.675551 H          1 MOL1         0.0959
      25    H17     21.008441   18.714234   27.676628 H          1 MOL1         0.0959
      26    N1      18.655352   19.906572   25.458440 N.4        1 MOL1        -0.5987
      27    H18     18.599235   20.074159   24.451313 H          1 MOL1         0.3605
      28    H19     18.501696   20.801971   25.931204 H          1 MOL1         0.3605
      29    H20     17.879026   19.289613   25.712057 H          1 MOL1         0.3605
@<TRIPOS>BOND
    1     1     2    1
    2     1     3    1
    3     1     4    1
    4     1     5    1
    5     5     6    1
    6     5     7    1
    7     5     8    1
    8     8     9    1
    9     8    10    1
   10     8    11    1
   11    11    12    1
   12    11    13    1
   13    11    14    1
   14    14    15    1
   15    14    16    1
   16    14    17    1
   17    17    18    1
   18    17    19    1
   19    17    20    1
   20    20    21    1
   21    20    22    1
   22    22    23    1
   23    22    24    1
   24    22    25    1
   25    20    26    1
   26    26    27    1
   27    26    28    1
   28    26    29    1
@<TRIPOS>SUBSTRUCTURE
       1 MOL1            1 RESIDUE      1      MOL     
@<SCITEGIC>MOL_PROPERTY
VM2 Rank
SciTegic.value.IntegerValue
106

@<SCITEGIC>MOL_PROPERTY
Conf_Id
SciTegic.value.IntegerValue
1113

@<SCITEGIC>MOL_PROPERTY
Probability
SciTegic.value.DoubleValue
0.01

@<SCITEGIC>MOL_PROPERTY
Sum Probability
SciTegic.value.DoubleValue
99.58

@<SCITEGIC>MOL_PROPERTY
Delta G
SciTegic.value.DoubleValue
3.944

@<SCITEGIC>MOL_PROPERTY
G
SciTegic.value.DoubleValue
37.646

@<SCITEGIC>MOL_PROPERTY
E
SciTegic.value.DoubleValue
0.133

@<SCITEGIC>MOL_PROPERTY
-TS
SciTegic.value.DoubleValue
37.513

@<SCITEGIC>MOL_PROPERTY
U+W
SciTegic.value.DoubleValue
-24.012

@<SCITEGIC>MOL_PROPERTY
U
SciTegic.value.DoubleValue
27.949

@<SCITEGIC>MOL_PROPERTY
W
SciTegic.value.DoubleValue
-51.961

@<SCITEGIC>MOL_PROPERTY
W(PB)
SciTegic.value.DoubleValue
-54.444

@<SCITEGIC>MOL_PROPERTY
W(SA)
SciTegic.value.DoubleValue
2.484

@<SCITEGIC>MOL_PROPERTY
Valence
SciTegic.value.DoubleValue
5.463

@<SCITEGIC>MOL_PROPERTY
Coulomb
SciTegic.value.DoubleValue
21.337

@<SCITEGIC>MOL_PROPERTY
VdW
SciTegic.value.DoubleValue
1.149

@<SCITEGIC>MOL_PROPERTY
VdW6
SciTegic.value.DoubleValue
-9.730

@<SCITEGIC>MOL_PROPERTY
VdW12
SciTegic.value.DoubleValue
10.879

@<SCITEGIC>MOL_PROPERTY
Bond
SciTegic.value.DoubleValue
0.280

@<SCITEGIC>MOL_PROPERTY
Angle
SciTegic.value.DoubleValue
1.828

@<SCITEGIC>MOL_PROPERTY
Pdih
SciTegic.value.DoubleValue
3.355

@<SCITEGIC>MOL_PROPERTY
Idih
SciTegic.value.DoubleValue
0.000

@<SCITEGIC>MOL_PROPERTY
Tether
SciTegic.value.DoubleValue
0.000

@<TRIPOS>MOLECULE
guest-s15_vm2.mol2 : vm2 ligand conformer 107
          29          28           1
SMALL
USER_CHARGES
 
@<TRIPOS>ATOM
       1    C1      18.541397   18.917339   19.688180 C.3        1 MOL1        -0.2426
       2    H1      17.591150   18.811572   20.227686 H          1 MOL1         0.0959
       3    H2      18.605921   19.944937   19.307237 H          1 MOL1         0.0959
       4    H3      18.516525   18.238981   18.825487 H          1 MOL1         0.0959
       5    C2      19.739083   18.589576   20.604597 C.3        1 MOL1        -0.1410
       6    H4      20.671639   18.669964   20.028630 H          1 MOL1         0.0948
       7    H5      19.664160   17.546688   20.943121 H          1 MOL1         0.0948
       8    C3      19.797841   19.531467   21.827187 C.3        1 MOL1        -0.1435
       9    H6      19.876355   20.572218   21.483957 H          1 MOL1         0.0948
      10    H7      18.856410   19.453711   22.385331 H          1 MOL1         0.0948
      11    C4      20.996948   19.201254   22.748445 C.3        1 MOL1        -0.1435
      12    H8      21.922188   19.273599   22.160216 H          1 MOL1         0.0948
      13    H9      20.941574   18.159590   23.089300 H          1 MOL1         0.0948
      14    C5      21.119511   20.153071   23.964198 C.3        1 MOL1        -0.1435
      15    H10     22.053827   19.925483   24.495853 H          1 MOL1         0.0948
      16    H11     21.229500   21.182614   23.596524 H          1 MOL1         0.0948
      17    C6      19.946814   20.109014   24.980198 C.3        1 MOL1        -0.1500
      18    H12     19.004176   20.405430   24.503097 H          1 MOL1         0.0948
      19    H13     20.146275   20.885665   25.730330 H          1 MOL1         0.0948
      20    C7      19.790663   18.748185   25.702764 C.3        1 MOL1         0.1162
      21    H14     20.743192   18.213676   25.635870 H          1 MOL1         0.0910
      22    C8      18.689627   17.879176   25.067930 C.3        1 MOL1        -0.2491
      23    H15     18.611281   16.916294   25.587534 H          1 MOL1         0.0959
      24    H16     17.712414   18.374694   25.124822 H          1 MOL1         0.0959
      25    H17     18.899723   17.665144   24.015127 H          1 MOL1         0.0959
      26    N1      19.514115   18.926919   27.170501 N.4        1 MOL1        -0.5987
      27    H18     20.256824   19.460821   27.631314 H          1 MOL1         0.3605
      28    H19     19.444944   18.024864   27.650338 H          1 MOL1         0.3605
      29    H20     18.633468   19.424717   27.327128 H          1 MOL1         0.3605
@<TRIPOS>BOND
    1     1     2    1
    2     1     3    1
    3     1     4    1
    4     1     5    1
    5     5     6    1
    6     5     7    1
    7     5     8    1
    8     8     9    1
    9     8    10    1
   10     8    11    1
   11    11    12    1
   12    11    13    1
   13    11    14    1
   14    14    15    1
   15    14    16    1
   16    14    17    1
   17    17    18    1
   18    17    19    1
   19    17    20    1
   20    20    21    1
   21    20    22    1
   22    22    23    1
   23    22    24    1
   24    22    25    1
   25    20    26    1
   26    26    27    1
   27    26    28    1
   28    26    29    1
@<TRIPOS>SUBSTRUCTURE
       1 MOL1            1 RESIDUE      1      MOL     
@<SCITEGIC>MOL_PROPERTY
VM2 Rank
SciTegic.value.IntegerValue
107

@<SCITEGIC>MOL_PROPERTY
Conf_Id
SciTegic.value.IntegerValue
281

@<SCITEGIC>MOL_PROPERTY
Probability
SciTegic.value.DoubleValue
0.01

@<SCITEGIC>MOL_PROPERTY
Sum Probability
SciTegic.value.DoubleValue
99.59

@<SCITEGIC>MOL_PROPERTY
Delta G
SciTegic.value.DoubleValue
3.952

@<SCITEGIC>MOL_PROPERTY
G
SciTegic.value.DoubleValue
37.654

@<SCITEGIC>MOL_PROPERTY
E
SciTegic.value.DoubleValue
-0.364

@<SCITEGIC>MOL_PROPERTY
-TS
SciTegic.value.DoubleValue
38.018

@<SCITEGIC>MOL_PROPERTY
U+W
SciTegic.value.DoubleValue
-24.508

@<SCITEGIC>MOL_PROPERTY
U
SciTegic.value.DoubleValue
27.828

@<SCITEGIC>MOL_PROPERTY
W
SciTegic.value.DoubleValue
-52.337

@<SCITEGIC>MOL_PROPERTY
W(PB)
SciTegic.value.DoubleValue
-54.787

@<SCITEGIC>MOL_PROPERTY
W(SA)
SciTegic.value.DoubleValue
2.450

@<SCITEGIC>MOL_PROPERTY
Valence
SciTegic.value.DoubleValue
6.936

@<SCITEGIC>MOL_PROPERTY
Coulomb
SciTegic.value.DoubleValue
20.038

@<SCITEGIC>MOL_PROPERTY
VdW
SciTegic.value.DoubleValue
0.855

@<SCITEGIC>MOL_PROPERTY
VdW6
SciTegic.value.DoubleValue
-10.295

@<SCITEGIC>MOL_PROPERTY
VdW12
SciTegic.value.DoubleValue
11.150

@<SCITEGIC>MOL_PROPERTY
Bond
SciTegic.value.DoubleValue
0.273

@<SCITEGIC>MOL_PROPERTY
Angle
SciTegic.value.DoubleValue
1.992

@<SCITEGIC>MOL_PROPERTY
Pdih
SciTegic.value.DoubleValue
4.671

@<SCITEGIC>MOL_PROPERTY
Idih
SciTegic.value.DoubleValue
0.000

@<SCITEGIC>MOL_PROPERTY
Tether
SciTegic.value.DoubleValue
0.000

@<TRIPOS>MOLECULE
guest-s15_vm2.mol2 : vm2 ligand conformer 108
          29          28           1
SMALL
USER_CHARGES
 
@<TRIPOS>ATOM
       1    C1      18.628321   20.270978   19.984260 C.3        1 MOL1        -0.2426
       2    H1      18.781073   21.257496   20.441041 H          1 MOL1         0.0959
       3    H2      19.211357   20.230378   19.054928 H          1 MOL1         0.0959
       4    H3      17.566513   20.182563   19.720125 H          1 MOL1         0.0959
       5    C2      19.045302   19.142369   20.950632 C.3        1 MOL1        -0.1410
       6    H4      18.847749   18.170060   20.478050 H          1 MOL1         0.0948
       7    H5      18.415526   19.185292   21.847498 H          1 MOL1         0.0948
       8    C3      20.543380   19.238922   21.327571 C.3        1 MOL1        -0.1435
       9    H6      21.133821   19.143466   20.405787 H          1 MOL1         0.0948
      10    H7      20.774553   20.233659   21.732682 H          1 MOL1         0.0948
      11    C4      20.999780   18.138161   22.320342 C.3        1 MOL1        -0.1435
      12    H8      22.013405   17.821871   22.037547 H          1 MOL1         0.0948
      13    H9      20.371210   17.243395   22.213052 H          1 MOL1         0.0948
      14    C5      21.046858   18.580142   23.806099 C.3        1 MOL1        -0.1435
      15    H10     21.448462   17.741875   24.389053 H          1 MOL1         0.0948
      16    H11     21.765301   19.403895   23.918124 H          1 MOL1         0.0948
      17    C6      19.676150   19.012467   24.385949 C.3        1 MOL1        -0.1500
      18    H12     18.938846   18.212565   24.237235 H          1 MOL1         0.0948
      19    H13     19.318446   19.883439   23.823724 H          1 MOL1         0.0948
      20    C7      19.726401   19.403713   25.880843 C.3        1 MOL1         0.1162
      21    H14     20.521545   20.143356   26.016084 H          1 MOL1         0.0910
      22    C8      20.020645   18.196894   26.790271 C.3        1 MOL1        -0.2491
      23    H15     21.018175   17.785105   26.600195 H          1 MOL1         0.0959
      24    H16     19.989744   18.492930   27.846102 H          1 MOL1         0.0959
      25    H17     19.283966   17.397877   26.640018 H          1 MOL1         0.0959
      26    N1      18.449163   20.072355   26.308033 N.4        1 MOL1        -0.5987
      27    H18     18.253645   20.906254   25.746600 H          1 MOL1         0.3605
      28    H19     18.491828   20.368068   27.287561 H          1 MOL1         0.3605
      29    H20     17.647811   19.442490   26.213890 H          1 MOL1         0.3605
@<TRIPOS>BOND
    1     1     2    1
    2     1     3    1
    3     1     4    1
    4     1     5    1
    5     5     6    1
    6     5     7    1
    7     5     8    1
    8     8     9    1
    9     8    10    1
   10     8    11    1
   11    11    12    1
   12    11    13    1
   13    11    14    1
   14    14    15    1
   15    14    16    1
   16    14    17    1
   17    17    18    1
   18    17    19    1
   19    17    20    1
   20    20    21    1
   21    20    22    1
   22    22    23    1
   23    22    24    1
   24    22    25    1
   25    20    26    1
   26    26    27    1
   27    26    28    1
   28    26    29    1
@<TRIPOS>SUBSTRUCTURE
       1 MOL1            1 RESIDUE      1      MOL     
@<SCITEGIC>MOL_PROPERTY
VM2 Rank
SciTegic.value.IntegerValue
108

@<SCITEGIC>MOL_PROPERTY
Conf_Id
SciTegic.value.IntegerValue
168

@<SCITEGIC>MOL_PROPERTY
Probability
SciTegic.value.DoubleValue
0.01

@<SCITEGIC>MOL_PROPERTY
Sum Probability
SciTegic.value.DoubleValue
99.61

@<SCITEGIC>MOL_PROPERTY
Delta G
SciTegic.value.DoubleValue
3.966

@<SCITEGIC>MOL_PROPERTY
G
SciTegic.value.DoubleValue
37.668

@<SCITEGIC>MOL_PROPERTY
E
SciTegic.value.DoubleValue
-0.059

@<SCITEGIC>MOL_PROPERTY
-TS
SciTegic.value.DoubleValue
37.727

@<SCITEGIC>MOL_PROPERTY
U+W
SciTegic.value.DoubleValue
-24.204

@<SCITEGIC>MOL_PROPERTY
U
SciTegic.value.DoubleValue
28.399

@<SCITEGIC>MOL_PROPERTY
W
SciTegic.value.DoubleValue
-52.602

@<SCITEGIC>MOL_PROPERTY
W(PB)
SciTegic.value.DoubleValue
-55.068

@<SCITEGIC>MOL_PROPERTY
W(SA)
SciTegic.value.DoubleValue
2.466

@<SCITEGIC>MOL_PROPERTY
Valence
SciTegic.value.DoubleValue
6.895

@<SCITEGIC>MOL_PROPERTY
Coulomb
SciTegic.value.DoubleValue
20.214

@<SCITEGIC>MOL_PROPERTY
VdW
SciTegic.value.DoubleValue
1.289

@<SCITEGIC>MOL_PROPERTY
VdW6
SciTegic.value.DoubleValue
-9.762

@<SCITEGIC>MOL_PROPERTY
VdW12
SciTegic.value.DoubleValue
11.051

@<SCITEGIC>MOL_PROPERTY
Bond
SciTegic.value.DoubleValue
0.294

@<SCITEGIC>MOL_PROPERTY
Angle
SciTegic.value.DoubleValue
1.988

@<SCITEGIC>MOL_PROPERTY
Pdih
SciTegic.value.DoubleValue
4.614

@<SCITEGIC>MOL_PROPERTY
Idih
SciTegic.value.DoubleValue
0.000

@<SCITEGIC>MOL_PROPERTY
Tether
SciTegic.value.DoubleValue
0.000

@<TRIPOS>MOLECULE
guest-s15_vm2.mol2 : vm2 ligand conformer 109
          29          28           1
SMALL
USER_CHARGES
 
@<TRIPOS>ATOM
       1    C1      20.742249   18.810407   19.725111 C.3        1 MOL1        -0.2426
       2    H1      19.884086   18.535038   19.098220 H          1 MOL1         0.0959
       3    H2      21.137383   19.768351   19.362580 H          1 MOL1         0.0959
       4    H3      21.521141   18.049944   19.583566 H          1 MOL1         0.0959
       5    C2      20.335652   18.903710   21.211048 C.3        1 MOL1        -0.1410
       6    H4      21.217692   19.156234   21.815857 H          1 MOL1         0.0948
       7    H5      19.984255   17.917732   21.540793 H          1 MOL1         0.0948
       8    C3      19.226341   19.956316   21.433450 C.3        1 MOL1        -0.1435
       9    H6      19.523399   20.894274   20.944247 H          1 MOL1         0.0948
      10    H7      18.306512   19.628593   20.929790 H          1 MOL1         0.0948
      11    C4      18.919720   20.266573   22.921338 C.3        1 MOL1        -0.1435
      12    H8      18.158845   21.059168   22.936543 H          1 MOL1         0.0948
      13    H9      19.803919   20.705511   23.399704 H          1 MOL1         0.0948
      14    C5      18.372815   19.067666   23.744574 C.3        1 MOL1        -0.1435
      15    H10     17.654913   19.449584   24.482474 H          1 MOL1         0.0948
      16    H11     17.786060   18.410515   23.088174 H          1 MOL1         0.0948
      17    C6      19.445952   18.226877   24.491053 C.3        1 MOL1        -0.1500
      18    H12     20.118330   17.753504   23.767831 H          1 MOL1         0.0948
      19    H13     18.942914   17.402736   25.014045 H          1 MOL1         0.0948
      20    C7      20.292507   19.024426   25.509202 C.3        1 MOL1         0.1162
      21    H14     20.814067   19.824380   24.976391 H          1 MOL1         0.0910
      22    C8      21.350304   18.114177   26.152964 C.3        1 MOL1        -0.2491
      23    H15     21.980661   18.682745   26.847777 H          1 MOL1         0.0959
      24    H16     20.882019   17.293081   26.710124 H          1 MOL1         0.0959
      25    H17     22.006299   17.678463   25.389032 H          1 MOL1         0.0959
      26    N1      19.450460   19.685847   26.565260 N.4        1 MOL1        -0.5987
      27    H18     18.769671   20.326886   26.148709 H          1 MOL1         0.3605
      28    H19     20.024503   20.227568   27.217594 H          1 MOL1         0.3605
      29    H20     18.930263   18.995758   27.113522 H          1 MOL1         0.3605
@<TRIPOS>BOND
    1     1     2    1
    2     1     3    1
    3     1     4    1
    4     1     5    1
    5     5     6    1
    6     5     7    1
    7     5     8    1
    8     8     9    1
    9     8    10    1
   10     8    11    1
   11    11    12    1
   12    11    13    1
   13    11    14    1
   14    14    15    1
   15    14    16    1
   16    14    17    1
   17    17    18    1
   18    17    19    1
   19    17    20    1
   20    20    21    1
   21    20    22    1
   22    22    23    1
   23    22    24    1
   24    22    25    1
   25    20    26    1
   26    26    27    1
   27    26    28    1
   28    26    29    1
@<TRIPOS>SUBSTRUCTURE
       1 MOL1            1 RESIDUE      1      MOL     
@<SCITEGIC>MOL_PROPERTY
VM2 Rank
SciTegic.value.IntegerValue
109

@<SCITEGIC>MOL_PROPERTY
Conf_Id
SciTegic.value.IntegerValue
326

@<SCITEGIC>MOL_PROPERTY
Probability
SciTegic.value.DoubleValue
0.01

@<SCITEGIC>MOL_PROPERTY
Sum Probability
SciTegic.value.DoubleValue
99.62

@<SCITEGIC>MOL_PROPERTY
Delta G
SciTegic.value.DoubleValue
3.972

@<SCITEGIC>MOL_PROPERTY
G
SciTegic.value.DoubleValue
37.674

@<SCITEGIC>MOL_PROPERTY
E
SciTegic.value.DoubleValue
0.011

@<SCITEGIC>MOL_PROPERTY
-TS
SciTegic.value.DoubleValue
37.663

@<SCITEGIC>MOL_PROPERTY
U+W
SciTegic.value.DoubleValue
-24.134

@<SCITEGIC>MOL_PROPERTY
U
SciTegic.value.DoubleValue
28.213

@<SCITEGIC>MOL_PROPERTY
W
SciTegic.value.DoubleValue
-52.347

@<SCITEGIC>MOL_PROPERTY
W(PB)
SciTegic.value.DoubleValue
-54.785

@<SCITEGIC>MOL_PROPERTY
W(SA)
SciTegic.value.DoubleValue
2.438

@<SCITEGIC>MOL_PROPERTY
Valence
SciTegic.value.DoubleValue
6.654

@<SCITEGIC>MOL_PROPERTY
Coulomb
SciTegic.value.DoubleValue
20.544

@<SCITEGIC>MOL_PROPERTY
VdW
SciTegic.value.DoubleValue
1.015

@<SCITEGIC>MOL_PROPERTY
VdW6
SciTegic.value.DoubleValue
-10.510

@<SCITEGIC>MOL_PROPERTY
VdW12
SciTegic.value.DoubleValue
11.524

@<SCITEGIC>MOL_PROPERTY
Bond
SciTegic.value.DoubleValue
0.340

@<SCITEGIC>MOL_PROPERTY
Angle
SciTegic.value.DoubleValue
2.190

@<SCITEGIC>MOL_PROPERTY
Pdih
SciTegic.value.DoubleValue
4.124

@<SCITEGIC>MOL_PROPERTY
Idih
SciTegic.value.DoubleValue
0.000

@<SCITEGIC>MOL_PROPERTY
Tether
SciTegic.value.DoubleValue
0.000

@<TRIPOS>MOLECULE
guest-s15_vm2.mol2 : vm2 ligand conformer 110
          29          28           1
SMALL
USER_CHARGES
 
@<TRIPOS>ATOM
       1    C1      19.237387   20.622878   19.908500 C.3        1 MOL1        -0.2426
       2    H1      20.218823   21.067663   19.698272 H          1 MOL1         0.0959
       3    H2      18.949613   20.006327   19.046948 H          1 MOL1         0.0959
       4    H3      18.508992   21.439401   19.996489 H          1 MOL1         0.0959
       5    C2      19.274901   19.784397   21.203644 C.3        1 MOL1        -0.1410
       6    H4      19.528908   20.443241   22.044517 H          1 MOL1         0.0948
       7    H5      18.274442   19.375304   21.401584 H          1 MOL1         0.0948
       8    C3      20.301604   18.632910   21.107569 C.3        1 MOL1        -0.1435
       9    H6      20.099767   18.050557   20.197950 H          1 MOL1         0.0948
      10    H7      21.309505   19.052476   20.983758 H          1 MOL1         0.0948
      11    C4      20.293104   17.663292   22.317615 C.3        1 MOL1        -0.1435
      12    H8      21.023102   16.868931   22.108932 H          1 MOL1         0.0948
      13    H9      19.320042   17.158279   22.391003 H          1 MOL1         0.0948
      14    C5      20.664924   18.317541   23.673790 C.3        1 MOL1        -0.1435
      15    H10     21.262061   17.595608   24.246357 H          1 MOL1         0.0948
      16    H11     21.314786   19.187606   23.506657 H          1 MOL1         0.0948
      17    C6      19.427972   18.719833   24.519118 C.3        1 MOL1        -0.1500
      18    H12     18.871602   17.817504   24.805577 H          1 MOL1         0.0948
      19    H13     18.744035   19.316477   23.905412 H          1 MOL1         0.0948
      20    C7      19.779877   19.534055   25.785004 C.3        1 MOL1         0.1162
      21    H14     20.362710   20.408353   25.479181 H          1 MOL1         0.0910
      22    C8      20.615879   18.718073   26.787219 C.3        1 MOL1        -0.2491
      23    H15     20.805481   19.301024   27.696926 H          1 MOL1         0.0959
      24    H16     20.098563   17.794813   27.076497 H          1 MOL1         0.0959
      25    H17     21.591485   18.448667   26.366322 H          1 MOL1         0.0959
      26    N1      18.540350   20.063021   26.451540 N.4        1 MOL1        -0.5987
      27    H18     18.770905   20.635792   27.268557 H          1 MOL1         0.3605
      28    H19     17.935243   19.302542   26.772946 H          1 MOL1         0.3605
      29    H20     17.989730   20.647255   25.815716 H          1 MOL1         0.3605
@<TRIPOS>BOND
    1     1     2    1
    2     1     3    1
    3     1     4    1
    4     1     5    1
    5     5     6    1
    6     5     7    1
    7     5     8    1
    8     8     9    1
    9     8    10    1
   10     8    11    1
   11    11    12    1
   12    11    13    1
   13    11    14    1
   14    14    15    1
   15    14    16    1
   16    14    17    1
   17    17    18    1
   18    17    19    1
   19    17    20    1
   20    20    21    1
   21    20    22    1
   22    22    23    1
   23    22    24    1
   24    22    25    1
   25    20    26    1
   26    26    27    1
   27    26    28    1
   28    26    29    1
@<TRIPOS>SUBSTRUCTURE
       1 MOL1            1 RESIDUE      1      MOL     
@<SCITEGIC>MOL_PROPERTY
VM2 Rank
SciTegic.value.IntegerValue
110

@<SCITEGIC>MOL_PROPERTY
Conf_Id
SciTegic.value.IntegerValue
690

@<SCITEGIC>MOL_PROPERTY
Probability
SciTegic.value.DoubleValue
0.01

@<SCITEGIC>MOL_PROPERTY
Sum Probability
SciTegic.value.DoubleValue
99.63

@<SCITEGIC>MOL_PROPERTY
Delta G
SciTegic.value.DoubleValue
3.983

@<SCITEGIC>MOL_PROPERTY
G
SciTegic.value.DoubleValue
37.685

@<SCITEGIC>MOL_PROPERTY
E
SciTegic.value.DoubleValue
-0.143

@<SCITEGIC>MOL_PROPERTY
-TS
SciTegic.value.DoubleValue
37.828

@<SCITEGIC>MOL_PROPERTY
U+W
SciTegic.value.DoubleValue
-24.288

@<SCITEGIC>MOL_PROPERTY
U
SciTegic.value.DoubleValue
28.312

@<SCITEGIC>MOL_PROPERTY
W
SciTegic.value.DoubleValue
-52.600

@<SCITEGIC>MOL_PROPERTY
W(PB)
SciTegic.value.DoubleValue
-55.091

@<SCITEGIC>MOL_PROPERTY
W(SA)
SciTegic.value.DoubleValue
2.492

@<SCITEGIC>MOL_PROPERTY
Valence
SciTegic.value.DoubleValue
6.782

@<SCITEGIC>MOL_PROPERTY
Coulomb
SciTegic.value.DoubleValue
20.298

@<SCITEGIC>MOL_PROPERTY
VdW
SciTegic.value.DoubleValue
1.231

@<SCITEGIC>MOL_PROPERTY
VdW6
SciTegic.value.DoubleValue
-9.819

@<SCITEGIC>MOL_PROPERTY
VdW12
SciTegic.value.DoubleValue
11.050

@<SCITEGIC>MOL_PROPERTY
Bond
SciTegic.value.DoubleValue
0.292

@<SCITEGIC>MOL_PROPERTY
Angle
SciTegic.value.DoubleValue
1.856

@<SCITEGIC>MOL_PROPERTY
Pdih
SciTegic.value.DoubleValue
4.635

@<SCITEGIC>MOL_PROPERTY
Idih
SciTegic.value.DoubleValue
0.000

@<SCITEGIC>MOL_PROPERTY
Tether
SciTegic.value.DoubleValue
0.000

@<TRIPOS>MOLECULE
guest-s15_vm2.mol2 : vm2 ligand conformer 111
          29          28           1
SMALL
USER_CHARGES
 
@<TRIPOS>ATOM
       1    C1      18.821544   20.270025   20.114044 C.3        1 MOL1        -0.2426
       2    H1      18.057136   20.344174   19.329760 H          1 MOL1         0.0959
       3    H2      18.437958   20.793287   20.998599 H          1 MOL1         0.0959
       4    H3      19.716438   20.799291   19.761798 H          1 MOL1         0.0959
       5    C2      19.137604   18.789014   20.422587 C.3        1 MOL1        -0.1410
       6    H4      19.399242   18.279898   19.484451 H          1 MOL1         0.0948
       7    H5      18.234987   18.289790   20.801699 H          1 MOL1         0.0948
       8    C3      20.299715   18.604635   21.428049 C.3        1 MOL1        -0.1435
       9    H6      20.524182   17.532060   21.509043 H          1 MOL1         0.0948
      10    H7      21.206518   19.081370   21.030964 H          1 MOL1         0.0948
      11    C4      19.989432   19.163819   22.836940 C.3        1 MOL1        -0.1435
      12    H8      19.049197   18.722979   23.188882 H          1 MOL1         0.0948
      13    H9      19.846259   20.250917   22.781956 H          1 MOL1         0.0948
      14    C5      21.125812   18.848727   23.838430 C.3        1 MOL1        -0.1435
      15    H10     21.205095   17.762341   23.978251 H          1 MOL1         0.0948
      16    H11     22.080852   19.160877   23.393754 H          1 MOL1         0.0948
      17    C6      20.991908   19.555306   25.216943 C.3        1 MOL1        -0.1500
      18    H12     21.041429   20.642581   25.073189 H          1 MOL1         0.0948
      19    H13     21.879932   19.299930   25.809997 H          1 MOL1         0.0948
      20    C7      19.745321   19.218044   26.074232 C.3        1 MOL1         0.1162
      21    H14     19.930825   19.623437   27.073704 H          1 MOL1         0.0910
      22    C8      19.529174   17.702478   26.227385 C.3        1 MOL1        -0.2491
      23    H15     19.244978   17.235726   25.276698 H          1 MOL1         0.0959
      24    H16     20.442039   17.214775   26.591207 H          1 MOL1         0.0959
      25    H17     18.731578   17.499572   26.952481 H          1 MOL1         0.0959
      26    N1      18.495490   19.903954   25.595390 N.4        1 MOL1        -0.5987
      27    H18     18.614984   20.920587   25.565322 H          1 MOL1         0.3605
      28    H19     17.702266   19.707623   26.212685 H          1 MOL1         0.3605
      29    H20     18.239769   19.595244   24.655223 H          1 MOL1         0.3605
@<TRIPOS>BOND
    1     1     2    1
    2     1     3    1
    3     1     4    1
    4     1     5    1
    5     5     6    1
    6     5     7    1
    7     5     8    1
    8     8     9    1
    9     8    10    1
   10     8    11    1
   11    11    12    1
   12    11    13    1
   13    11    14    1
   14    14    15    1
   15    14    16    1
   16    14    17    1
   17    17    18    1
   18    17    19    1
   19    17    20    1
   20    20    21    1
   21    20    22    1
   22    22    23    1
   23    22    24    1
   24    22    25    1
   25    20    26    1
   26    26    27    1
   27    26    28    1
   28    26    29    1
@<TRIPOS>SUBSTRUCTURE
       1 MOL1            1 RESIDUE      1      MOL     
@<SCITEGIC>MOL_PROPERTY
VM2 Rank
SciTegic.value.IntegerValue
111

@<SCITEGIC>MOL_PROPERTY
Conf_Id
SciTegic.value.IntegerValue
224

@<SCITEGIC>MOL_PROPERTY
Probability
SciTegic.value.DoubleValue
0.01

@<SCITEGIC>MOL_PROPERTY
Sum Probability
SciTegic.value.DoubleValue
99.65

@<SCITEGIC>MOL_PROPERTY
Delta G
SciTegic.value.DoubleValue
3.986

@<SCITEGIC>MOL_PROPERTY
G
SciTegic.value.DoubleValue
37.688

@<SCITEGIC>MOL_PROPERTY
E
SciTegic.value.DoubleValue
-0.406

@<SCITEGIC>MOL_PROPERTY
-TS
SciTegic.value.DoubleValue
38.094

@<SCITEGIC>MOL_PROPERTY
U+W
SciTegic.value.DoubleValue
-24.551

@<SCITEGIC>MOL_PROPERTY
U
SciTegic.value.DoubleValue
27.945

@<SCITEGIC>MOL_PROPERTY
W
SciTegic.value.DoubleValue
-52.495

@<SCITEGIC>MOL_PROPERTY
W(PB)
SciTegic.value.DoubleValue
-54.918

@<SCITEGIC>MOL_PROPERTY
W(SA)
SciTegic.value.DoubleValue
2.422

@<SCITEGIC>MOL_PROPERTY
Valence
SciTegic.value.DoubleValue
5.549

@<SCITEGIC>MOL_PROPERTY
Coulomb
SciTegic.value.DoubleValue
21.392

@<SCITEGIC>MOL_PROPERTY
VdW
SciTegic.value.DoubleValue
1.003

@<SCITEGIC>MOL_PROPERTY
VdW6
SciTegic.value.DoubleValue
-10.751

@<SCITEGIC>MOL_PROPERTY
VdW12
SciTegic.value.DoubleValue
11.754

@<SCITEGIC>MOL_PROPERTY
Bond
SciTegic.value.DoubleValue
0.327

@<SCITEGIC>MOL_PROPERTY
Angle
SciTegic.value.DoubleValue
2.388

@<SCITEGIC>MOL_PROPERTY
Pdih
SciTegic.value.DoubleValue
2.834

@<SCITEGIC>MOL_PROPERTY
Idih
SciTegic.value.DoubleValue
0.000

@<SCITEGIC>MOL_PROPERTY
Tether
SciTegic.value.DoubleValue
0.000

@<TRIPOS>MOLECULE
guest-s15_vm2.mol2 : vm2 ligand conformer 112
          29          28           1
SMALL
USER_CHARGES
 
@<TRIPOS>ATOM
       1    C1      18.105070   19.063107   20.767685 C.3        1 MOL1        -0.2426
       2    H1      17.800018   20.041660   20.374731 H          1 MOL1         0.0959
       3    H2      17.468651   18.302570   20.297113 H          1 MOL1         0.0959
       4    H3      17.895709   19.051691   21.842846 H          1 MOL1         0.0959
       5    C2      19.595320   18.786031   20.460596 C.3        1 MOL1        -0.1410
       6    H4      19.721401   18.787940   19.368827 H          1 MOL1         0.0948
       7    H5      19.873342   17.776840   20.794953 H          1 MOL1         0.0948
       8    C3      20.555986   19.839505   21.069938 C.3        1 MOL1        -0.1435
       9    H6      21.389398   19.987401   20.369296 H          1 MOL1         0.0948
      10    H7      20.054392   20.814335   21.142240 H          1 MOL1         0.0948
      11    C4      21.164898   19.450246   22.441801 C.3        1 MOL1        -0.1435
      12    H8      21.875388   20.234885   22.736367 H          1 MOL1         0.0948
      13    H9      21.754495   18.529752   22.330959 H          1 MOL1         0.0948
      14    C5      20.125165   19.261832   23.570460 C.3        1 MOL1        -0.1435
      15    H10     19.472806   20.143824   23.611642 H          1 MOL1         0.0948
      16    H11     19.493681   18.396996   23.334273 H          1 MOL1         0.0948
      17    C6      20.807839   19.041170   24.945415 C.3        1 MOL1        -0.1500
      18    H12     21.476791   19.885776   25.156441 H          1 MOL1         0.0948
      19    H13     21.450672   18.152497   24.892497 H          1 MOL1         0.0948
      20    C7      19.834476   18.880789   26.137073 C.3        1 MOL1         0.1162
      21    H14     20.442303   18.762529   27.039473 H          1 MOL1         0.0910
      22    C8      18.954212   17.626062   26.001699 C.3        1 MOL1        -0.2491
      23    H15     18.376678   17.462352   26.919768 H          1 MOL1         0.0959
      24    H16     18.243792   17.716021   25.171374 H          1 MOL1         0.0959
      25    H17     19.570136   16.734033   25.832879 H          1 MOL1         0.0959
      26    N1      18.993034   20.107259   26.359331 N.4        1 MOL1        -0.5987
      27    H18     18.399361   20.008341   27.187842 H          1 MOL1         0.3605
      28    H19     18.379186   20.285788   25.560727 H          1 MOL1         0.3605
      29    H20     19.572876   20.940267   26.495744 H          1 MOL1         0.3605
@<TRIPOS>BOND
    1     1     2    1
    2     1     3    1
    3     1     4    1
    4     1     5    1
    5     5     6    1
    6     5     7    1
    7     5     8    1
    8     8     9    1
    9     8    10    1
   10     8    11    1
   11    11    12    1
   12    11    13    1
   13    11    14    1
   14    14    15    1
   15    14    16    1
   16    14    17    1
   17    17    18    1
   18    17    19    1
   19    17    20    1
   20    20    21    1
   21    20    22    1
   22    22    23    1
   23    22    24    1
   24    22    25    1
   25    20    26    1
   26    26    27    1
   27    26    28    1
   28    26    29    1
@<TRIPOS>SUBSTRUCTURE
       1 MOL1            1 RESIDUE      1      MOL     
@<SCITEGIC>MOL_PROPERTY
VM2 Rank
SciTegic.value.IntegerValue
112

@<SCITEGIC>MOL_PROPERTY
Conf_Id
SciTegic.value.IntegerValue
1275

@<SCITEGIC>MOL_PROPERTY
Probability
SciTegic.value.DoubleValue
0.01

@<SCITEGIC>MOL_PROPERTY
Sum Probability
SciTegic.value.DoubleValue
99.66

@<SCITEGIC>MOL_PROPERTY
Delta G
SciTegic.value.DoubleValue
3.988

@<SCITEGIC>MOL_PROPERTY
G
SciTegic.value.DoubleValue
37.690

@<SCITEGIC>MOL_PROPERTY
E
SciTegic.value.DoubleValue
-0.198

@<SCITEGIC>MOL_PROPERTY
-TS
SciTegic.value.DoubleValue
37.888

@<SCITEGIC>MOL_PROPERTY
U+W
SciTegic.value.DoubleValue
-24.343

@<SCITEGIC>MOL_PROPERTY
U
SciTegic.value.DoubleValue
28.036

@<SCITEGIC>MOL_PROPERTY
W
SciTegic.value.DoubleValue
-52.378

@<SCITEGIC>MOL_PROPERTY
W(PB)
SciTegic.value.DoubleValue
-54.816

@<SCITEGIC>MOL_PROPERTY
W(SA)
SciTegic.value.DoubleValue
2.438

@<SCITEGIC>MOL_PROPERTY
Valence
SciTegic.value.DoubleValue
6.660

@<SCITEGIC>MOL_PROPERTY
Coulomb
SciTegic.value.DoubleValue
20.146

@<SCITEGIC>MOL_PROPERTY
VdW
SciTegic.value.DoubleValue
1.229

@<SCITEGIC>MOL_PROPERTY
VdW6
SciTegic.value.DoubleValue
-10.258

@<SCITEGIC>MOL_PROPERTY
VdW12
SciTegic.value.DoubleValue
11.487

@<SCITEGIC>MOL_PROPERTY
Bond
SciTegic.value.DoubleValue
0.309

@<SCITEGIC>MOL_PROPERTY
Angle
SciTegic.value.DoubleValue
1.997

@<SCITEGIC>MOL_PROPERTY
Pdih
SciTegic.value.DoubleValue
4.354

@<SCITEGIC>MOL_PROPERTY
Idih
SciTegic.value.DoubleValue
0.000

@<SCITEGIC>MOL_PROPERTY
Tether
SciTegic.value.DoubleValue
0.000

@<TRIPOS>MOLECULE
guest-s15_vm2.mol2 : vm2 ligand conformer 113
          29          28           1
SMALL
USER_CHARGES
 
@<TRIPOS>ATOM
       1    C1      18.079089   19.342233   20.798887 C.3        1 MOL1        -0.2426
       2    H1      17.857910   18.401736   20.277745 H          1 MOL1         0.0959
       3    H2      17.882524   19.190211   21.865729 H          1 MOL1         0.0959
       4    H3      17.371779   20.098583   20.434836 H          1 MOL1         0.0959
       5    C2      19.534945   19.790785   20.532125 C.3        1 MOL1        -0.1410
       6    H4      19.725204   20.768193   20.996907 H          1 MOL1         0.0948
       7    H5      19.648557   19.943804   19.449749 H          1 MOL1         0.0948
       8    C3      20.592631   18.757334   20.998131 C.3        1 MOL1        -0.1435
       9    H6      20.180761   17.740334   20.941532 H          1 MOL1         0.0948
      10    H7      21.427999   18.777890   20.284629 H          1 MOL1         0.0948
      11    C4      21.179557   19.016896   22.409658 C.3        1 MOL1        -0.1435
      12    H8      21.685596   19.992108   22.420068 H          1 MOL1         0.0948
      13    H9      21.958639   18.266021   22.600642 H          1 MOL1         0.0948
      14    C5      20.139255   18.965227   23.552232 C.3        1 MOL1        -0.1435
      15    H10     19.432561   19.795560   23.434692 H          1 MOL1         0.0948
      16    H11     19.566127   18.032261   23.473173 H          1 MOL1         0.0948
      17    C6      20.815668   19.056666   24.944813 C.3        1 MOL1        -0.1500
      18    H12     21.434035   19.962956   24.986479 H          1 MOL1         0.0948
      19    H13     21.507443   18.212939   25.068487 H          1 MOL1         0.0948
      20    C7      19.837932   19.076058   26.143505 C.3        1 MOL1         0.1162
      21    H14     20.440400   19.164011   27.052935 H          1 MOL1         0.0910
      22    C8      19.024643   17.774178   26.248260 C.3        1 MOL1        -0.2491
      23    H15     18.322068   17.666333   25.413382 H          1 MOL1         0.0959
      24    H16     19.687465   16.899999   26.255641 H          1 MOL1         0.0959
      25    H17     18.443797   17.758884   27.178625 H          1 MOL1         0.0959
      26    N1      18.932280   20.276622   26.126389 N.4        1 MOL1        -0.5987
      27    H18     18.335648   20.306553   26.958155 H          1 MOL1         0.3605
      28    H19     18.318568   20.266985   25.308059 H          1 MOL1         0.3605
      29    H20     19.467112   21.149600   26.101717 H          1 MOL1         0.3605
@<TRIPOS>BOND
    1     1     2    1
    2     1     3    1
    3     1     4    1
    4     1     5    1
    5     5     6    1
    6     5     7    1
    7     5     8    1
    8     8     9    1
    9     8    10    1
   10     8    11    1
   11    11    12    1
   12    11    13    1
   13    11    14    1
   14    14    15    1
   15    14    16    1
   16    14    17    1
   17    17    18    1
   18    17    19    1
   19    17    20    1
   20    20    21    1
   21    20    22    1
   22    22    23    1
   23    22    24    1
   24    22    25    1
   25    20    26    1
   26    26    27    1
   27    26    28    1
   28    26    29    1
@<TRIPOS>SUBSTRUCTURE
       1 MOL1            1 RESIDUE      1      MOL     
@<SCITEGIC>MOL_PROPERTY
VM2 Rank
SciTegic.value.IntegerValue
113

@<SCITEGIC>MOL_PROPERTY
Conf_Id
SciTegic.value.IntegerValue
602

@<SCITEGIC>MOL_PROPERTY
Probability
SciTegic.value.DoubleValue
0.01

@<SCITEGIC>MOL_PROPERTY
Sum Probability
SciTegic.value.DoubleValue
99.67

@<SCITEGIC>MOL_PROPERTY
Delta G
SciTegic.value.DoubleValue
3.990

@<SCITEGIC>MOL_PROPERTY
G
SciTegic.value.DoubleValue
37.692

@<SCITEGIC>MOL_PROPERTY
E
SciTegic.value.DoubleValue
-0.197

@<SCITEGIC>MOL_PROPERTY
-TS
SciTegic.value.DoubleValue
37.889

@<SCITEGIC>MOL_PROPERTY
U+W
SciTegic.value.DoubleValue
-24.342

@<SCITEGIC>MOL_PROPERTY
U
SciTegic.value.DoubleValue
28.181

@<SCITEGIC>MOL_PROPERTY
W
SciTegic.value.DoubleValue
-52.523

@<SCITEGIC>MOL_PROPERTY
W(PB)
SciTegic.value.DoubleValue
-54.971

@<SCITEGIC>MOL_PROPERTY
W(SA)
SciTegic.value.DoubleValue
2.447

@<SCITEGIC>MOL_PROPERTY
Valence
SciTegic.value.DoubleValue
6.657

@<SCITEGIC>MOL_PROPERTY
Coulomb
SciTegic.value.DoubleValue
20.299

@<SCITEGIC>MOL_PROPERTY
VdW
SciTegic.value.DoubleValue
1.225

@<SCITEGIC>MOL_PROPERTY
VdW6
SciTegic.value.DoubleValue
-10.253

@<SCITEGIC>MOL_PROPERTY
VdW12
SciTegic.value.DoubleValue
11.478

@<SCITEGIC>MOL_PROPERTY
Bond
SciTegic.value.DoubleValue
0.308

@<SCITEGIC>MOL_PROPERTY
Angle
SciTegic.value.DoubleValue
1.987

@<SCITEGIC>MOL_PROPERTY
Pdih
SciTegic.value.DoubleValue
4.361

@<SCITEGIC>MOL_PROPERTY
Idih
SciTegic.value.DoubleValue
0.000

@<SCITEGIC>MOL_PROPERTY
Tether
SciTegic.value.DoubleValue
0.000

@<TRIPOS>MOLECULE
guest-s15_vm2.mol2 : vm2 ligand conformer 114
          29          28           1
SMALL
USER_CHARGES
 
@<TRIPOS>ATOM
       1    C1      19.143385   19.325267   19.136242 C.3        1 MOL1        -0.2426
       2    H1      18.562342   20.256523   19.156128 H          1 MOL1         0.0959
       3    H2      20.140304   19.552650   18.736618 H          1 MOL1         0.0959
       4    H3      18.650290   18.635063   18.439453 H          1 MOL1         0.0959
       5    C2      19.239549   18.701451   20.544567 C.3        1 MOL1        -0.1410
       6    H4      19.796596   17.755777   20.487152 H          1 MOL1         0.0948
       7    H5      18.230567   18.453965   20.903118 H          1 MOL1         0.0948
       8    C3      19.930429   19.653551   21.545679 C.3        1 MOL1        -0.1435
       9    H6      20.936981   19.899981   21.180267 H          1 MOL1         0.0948
      10    H7      19.371384   20.598056   21.598642 H          1 MOL1         0.0948
      11    C4      20.029507   19.031355   22.956744 C.3        1 MOL1        -0.1435
      12    H8      20.597365   18.092201   22.903711 H          1 MOL1         0.0948
      13    H9      19.018756   18.783080   23.301793 H          1 MOL1         0.0948
      14    C5      20.707253   19.992625   23.960698 C.3        1 MOL1        -0.1435
      15    H10     21.645641   20.354612   23.518257 H          1 MOL1         0.0948
      16    H11     20.081847   20.885054   24.097005 H          1 MOL1         0.0948
      17    C6      21.049956   19.365280   25.341944 C.3        1 MOL1        -0.1500
      18    H12     21.571466   20.133462   25.927774 H          1 MOL1         0.0948
      19    H13     21.783207   18.559018   25.208151 H          1 MOL1         0.0948
      20    C7      19.869079   18.853684   26.207273 C.3        1 MOL1         0.1162
      21    H14     20.208514   18.882409   27.247317 H          1 MOL1         0.0910
      22    C8      19.506966   17.386472   25.911256 C.3        1 MOL1        -0.2491
      23    H15     20.389038   16.741627   26.008841 H          1 MOL1         0.0959
      24    H16     18.757661   17.027290   26.627279 H          1 MOL1         0.0959
      25    H17     19.096926   17.249868   24.906380 H          1 MOL1         0.0959
      26    N1      18.659876   19.746316   26.149596 N.4        1 MOL1        -0.5987
      27    H18     18.279106   19.788600   25.201037 H          1 MOL1         0.3605
      28    H19     18.889067   20.703242   26.433219 H          1 MOL1         0.3605
      29    H20     17.916511   19.411766   26.769394 H          1 MOL1         0.3605
@<TRIPOS>BOND
    1     1     2    1
    2     1     3    1
    3     1     4    1
    4     1     5    1
    5     5     6    1
    6     5     7    1
    7     5     8    1
    8     8     9    1
    9     8    10    1
   10     8    11    1
   11    11    12    1
   12    11    13    1
   13    11    14    1
   14    14    15    1
   15    14    16    1
   16    14    17    1
   17    17    18    1
   18    17    19    1
   19    17    20    1
   20    20    21    1
   21    20    22    1
   22    22    23    1
   23    22    24    1
   24    22    25    1
   25    20    26    1
   26    26    27    1
   27    26    28    1
   28    26    29    1
@<TRIPOS>SUBSTRUCTURE
       1 MOL1            1 RESIDUE      1      MOL     
@<SCITEGIC>MOL_PROPERTY
VM2 Rank
SciTegic.value.IntegerValue
114

@<SCITEGIC>MOL_PROPERTY
Conf_Id
SciTegic.value.IntegerValue
1376

@<SCITEGIC>MOL_PROPERTY
Probability
SciTegic.value.DoubleValue
0.01

@<SCITEGIC>MOL_PROPERTY
Sum Probability
SciTegic.value.DoubleValue
99.69

@<SCITEGIC>MOL_PROPERTY
Delta G
SciTegic.value.DoubleValue
4.004

@<SCITEGIC>MOL_PROPERTY
G
SciTegic.value.DoubleValue
37.706

@<SCITEGIC>MOL_PROPERTY
E
SciTegic.value.DoubleValue
-0.180

@<SCITEGIC>MOL_PROPERTY
-TS
SciTegic.value.DoubleValue
37.886

@<SCITEGIC>MOL_PROPERTY
U+W
SciTegic.value.DoubleValue
-24.325

@<SCITEGIC>MOL_PROPERTY
U
SciTegic.value.DoubleValue
27.917

@<SCITEGIC>MOL_PROPERTY
W
SciTegic.value.DoubleValue
-52.242

@<SCITEGIC>MOL_PROPERTY
W(PB)
SciTegic.value.DoubleValue
-54.697

@<SCITEGIC>MOL_PROPERTY
W(SA)
SciTegic.value.DoubleValue
2.455

@<SCITEGIC>MOL_PROPERTY
Valence
SciTegic.value.DoubleValue
6.272

@<SCITEGIC>MOL_PROPERTY
Coulomb
SciTegic.value.DoubleValue
20.554

@<SCITEGIC>MOL_PROPERTY
VdW
SciTegic.value.DoubleValue
1.091

@<SCITEGIC>MOL_PROPERTY
VdW6
SciTegic.value.DoubleValue
-9.903

@<SCITEGIC>MOL_PROPERTY
VdW12
SciTegic.value.DoubleValue
10.994

@<SCITEGIC>MOL_PROPERTY
Bond
SciTegic.value.DoubleValue
0.299

@<SCITEGIC>MOL_PROPERTY
Angle
SciTegic.value.DoubleValue
2.362

@<SCITEGIC>MOL_PROPERTY
Pdih
SciTegic.value.DoubleValue
3.611

@<SCITEGIC>MOL_PROPERTY
Idih
SciTegic.value.DoubleValue
0.000

@<SCITEGIC>MOL_PROPERTY
Tether
SciTegic.value.DoubleValue
0.000

@<TRIPOS>MOLECULE
guest-s15_vm2.mol2 : vm2 ligand conformer 115
          29          28           1
SMALL
USER_CHARGES
 
@<TRIPOS>ATOM
       1    C1      19.740828   19.520541   18.992839 C.3        1 MOL1        -0.2426
       2    H1      20.766179   19.320308   18.655508 H          1 MOL1         0.0959
       3    H2      19.053229   19.052925   18.276192 H          1 MOL1         0.0959
       4    H3      19.575622   20.605383   18.960015 H          1 MOL1         0.0959
       5    C2      19.505682   18.967006   20.414242 C.3        1 MOL1        -0.1410
       6    H4      19.649869   17.877585   20.408925 H          1 MOL1         0.0948
       7    H5      18.460787   19.148976   20.697554 H          1 MOL1         0.0948
       8    C3      20.461740   19.615705   21.443176 C.3        1 MOL1        -0.1435
       9    H6      21.495800   19.492715   21.092545 H          1 MOL1         0.0948
      10    H7      20.279151   20.698202   21.488920 H          1 MOL1         0.0948
      11    C4      20.352724   19.009284   22.863908 C.3        1 MOL1        -0.1435
      12    H8      21.167502   19.426337   23.469752 H          1 MOL1         0.0948
      13    H9      20.521414   17.924766   22.814461 H          1 MOL1         0.0948
      14    C5      18.999206   19.300064   23.559194 C.3        1 MOL1        -0.1435
      15    H10     18.850633   20.386443   23.629930 H          1 MOL1         0.0948
      16    H11     18.177409   18.916233   22.941575 H          1 MOL1         0.0948
      17    C6      18.867173   18.671840   24.969862 C.3        1 MOL1        -0.1500
      18    H12     18.928216   17.577444   24.900999 H          1 MOL1         0.0948
      19    H13     17.853486   18.888170   25.332345 H          1 MOL1         0.0948
      20    C7      19.898349   19.208503   25.992157 C.3        1 MOL1         0.1162
      21    H14     20.310837   20.144010   25.602013 H          1 MOL1         0.0910
      22    C8      21.051982   18.212395   26.209049 C.3        1 MOL1        -0.2491
      23    H15     21.806039   18.635658   26.883985 H          1 MOL1         0.0959
      24    H16     20.687644   17.276896   26.651752 H          1 MOL1         0.0959
      25    H17     21.552514   17.965666   25.266078 H          1 MOL1         0.0959
      26    N1      19.258317   19.550663   27.309574 N.4        1 MOL1        -0.5987
      27    H18     18.517130   20.248684   27.197857 H          1 MOL1         0.3605
      28    H19     19.941608   19.934757   27.968643 H          1 MOL1         0.3605
      29    H20     18.841138   18.725218   27.748345 H          1 MOL1         0.3605
@<TRIPOS>BOND
    1     1     2    1
    2     1     3    1
    3     1     4    1
    4     1     5    1
    5     5     6    1
    6     5     7    1
    7     5     8    1
    8     8     9    1
    9     8    10    1
   10     8    11    1
   11    11    12    1
   12    11    13    1
   13    11    14    1
   14    14    15    1
   15    14    16    1
   16    14    17    1
   17    17    18    1
   18    17    19    1
   19    17    20    1
   20    20    21    1
   21    20    22    1
   22    22    23    1
   23    22    24    1
   24    22    25    1
   25    20    26    1
   26    26    27    1
   27    26    28    1
   28    26    29    1
@<TRIPOS>SUBSTRUCTURE
       1 MOL1            1 RESIDUE      1      MOL     
@<SCITEGIC>MOL_PROPERTY
VM2 Rank
SciTegic.value.IntegerValue
115

@<SCITEGIC>MOL_PROPERTY
Conf_Id
SciTegic.value.IntegerValue
688

@<SCITEGIC>MOL_PROPERTY
Probability
SciTegic.value.DoubleValue
0.01

@<SCITEGIC>MOL_PROPERTY
Sum Probability
SciTegic.value.DoubleValue
99.70

@<SCITEGIC>MOL_PROPERTY
Delta G
SciTegic.value.DoubleValue
4.023

@<SCITEGIC>MOL_PROPERTY
G
SciTegic.value.DoubleValue
37.725

@<SCITEGIC>MOL_PROPERTY
E
SciTegic.value.DoubleValue
0.177

@<SCITEGIC>MOL_PROPERTY
-TS
SciTegic.value.DoubleValue
37.548

@<SCITEGIC>MOL_PROPERTY
U+W
SciTegic.value.DoubleValue
-23.968

@<SCITEGIC>MOL_PROPERTY
U
SciTegic.value.DoubleValue
28.095

@<SCITEGIC>MOL_PROPERTY
W
SciTegic.value.DoubleValue
-52.063

@<SCITEGIC>MOL_PROPERTY
W(PB)
SciTegic.value.DoubleValue
-54.558

@<SCITEGIC>MOL_PROPERTY
W(SA)
SciTegic.value.DoubleValue
2.495

@<SCITEGIC>MOL_PROPERTY
Valence
SciTegic.value.DoubleValue
6.946

@<SCITEGIC>MOL_PROPERTY
Coulomb
SciTegic.value.DoubleValue
19.830

@<SCITEGIC>MOL_PROPERTY
VdW
SciTegic.value.DoubleValue
1.319

@<SCITEGIC>MOL_PROPERTY
VdW6
SciTegic.value.DoubleValue
-9.594

@<SCITEGIC>MOL_PROPERTY
VdW12
SciTegic.value.DoubleValue
10.913

@<SCITEGIC>MOL_PROPERTY
Bond
SciTegic.value.DoubleValue
0.269

@<SCITEGIC>MOL_PROPERTY
Angle
SciTegic.value.DoubleValue
1.645

@<SCITEGIC>MOL_PROPERTY
Pdih
SciTegic.value.DoubleValue
5.031

@<SCITEGIC>MOL_PROPERTY
Idih
SciTegic.value.DoubleValue
0.000

@<SCITEGIC>MOL_PROPERTY
Tether
SciTegic.value.DoubleValue
0.000

@<TRIPOS>MOLECULE
guest-s15_vm2.mol2 : vm2 ligand conformer 116
          29          28           1
SMALL
USER_CHARGES
 
@<TRIPOS>ATOM
       1    C1      20.296935   18.335902   19.908189 C.3        1 MOL1        -0.2426
       2    H1      20.078628   18.994051   19.057212 H          1 MOL1         0.0959
       3    H2      21.294696   18.586886   20.287683 H          1 MOL1         0.0959
       4    H3      20.336892   17.305388   19.532216 H          1 MOL1         0.0959
       5    C2      19.215692   18.468987   21.005076 C.3        1 MOL1        -0.1410
       6    H4      19.457534   17.800818   21.839981 H          1 MOL1         0.0948
       7    H5      18.260536   18.110732   20.596493 H          1 MOL1         0.0948
       8    C3      19.022471   19.925772   21.500389 C.3        1 MOL1        -0.1435
       9    H6      18.855226   20.565338   20.622770 H          1 MOL1         0.0948
      10    H7      18.099115   19.993212   22.091810 H          1 MOL1         0.0948
      11    C4      20.206294   20.506294   22.321470 C.3        1 MOL1        -0.1435
      12    H8      20.278936   21.579649   22.098203 H          1 MOL1         0.0948
      13    H9      21.160316   20.074850   21.994443 H          1 MOL1         0.0948
      14    C5      20.061364   20.361433   23.858264 C.3        1 MOL1        -0.1435
      15    H10     20.908098   20.876309   24.333163 H          1 MOL1         0.0948
      16    H11     19.156483   20.891325   24.184535 H          1 MOL1         0.0948
      17    C6      20.021873   18.895846   24.356641 C.3        1 MOL1        -0.1500
      18    H12     20.856295   18.343052   23.904974 H          1 MOL1         0.0948
      19    H13     19.096199   18.412284   24.020506 H          1 MOL1         0.0948
      20    C7      20.122486   18.782799   25.892863 C.3        1 MOL1         0.1162
      21    H14     21.040572   19.284216   26.214302 H          1 MOL1         0.0910
      22    C8      20.204461   17.307513   26.315902 C.3        1 MOL1        -0.2491
      23    H15     20.313737   17.221130   27.404014 H          1 MOL1         0.0959
      24    H16     19.302460   16.758292   26.018107 H          1 MOL1         0.0959
      25    H17     21.070854   16.817343   25.854540 H          1 MOL1         0.0959
      26    N1      18.984423   19.471454   26.595206 N.4        1 MOL1        -0.5987
      27    H18     19.078875   19.406934   27.612823 H          1 MOL1         0.3605
      28    H19     18.084093   19.055006   26.343419 H          1 MOL1         0.3605
      29    H20     18.943566   20.465250   26.353440 H          1 MOL1         0.3605
@<TRIPOS>BOND
    1     1     2    1
    2     1     3    1
    3     1     4    1
    4     1     5    1
    5     5     6    1
    6     5     7    1
    7     5     8    1
    8     8     9    1
    9     8    10    1
   10     8    11    1
   11    11    12    1
   12    11    13    1
   13    11    14    1
   14    14    15    1
   15    14    16    1
   16    14    17    1
   17    17    18    1
   18    17    19    1
   19    17    20    1
   20    20    21    1
   21    20    22    1
   22    22    23    1
   23    22    24    1
   24    22    25    1
   25    20    26    1
   26    26    27    1
   27    26    28    1
   28    26    29    1
@<TRIPOS>SUBSTRUCTURE
       1 MOL1            1 RESIDUE      1      MOL     
@<SCITEGIC>MOL_PROPERTY
VM2 Rank
SciTegic.value.IntegerValue
116

@<SCITEGIC>MOL_PROPERTY
Conf_Id
SciTegic.value.IntegerValue
1197

@<SCITEGIC>MOL_PROPERTY
Probability
SciTegic.value.DoubleValue
0.01

@<SCITEGIC>MOL_PROPERTY
Sum Probability
SciTegic.value.DoubleValue
99.71

@<SCITEGIC>MOL_PROPERTY
Delta G
SciTegic.value.DoubleValue
4.025

@<SCITEGIC>MOL_PROPERTY
G
SciTegic.value.DoubleValue
37.727

@<SCITEGIC>MOL_PROPERTY
E
SciTegic.value.DoubleValue
-0.068

@<SCITEGIC>MOL_PROPERTY
-TS
SciTegic.value.DoubleValue
37.794

@<SCITEGIC>MOL_PROPERTY
U+W
SciTegic.value.DoubleValue
-24.212

@<SCITEGIC>MOL_PROPERTY
U
SciTegic.value.DoubleValue
28.201

@<SCITEGIC>MOL_PROPERTY
W
SciTegic.value.DoubleValue
-52.414

@<SCITEGIC>MOL_PROPERTY
W(PB)
SciTegic.value.DoubleValue
-54.887

@<SCITEGIC>MOL_PROPERTY
W(SA)
SciTegic.value.DoubleValue
2.474

@<SCITEGIC>MOL_PROPERTY
Valence
SciTegic.value.DoubleValue
6.863

@<SCITEGIC>MOL_PROPERTY
Coulomb
SciTegic.value.DoubleValue
20.157

@<SCITEGIC>MOL_PROPERTY
VdW
SciTegic.value.DoubleValue
1.182

@<SCITEGIC>MOL_PROPERTY
VdW6
SciTegic.value.DoubleValue
-10.208

@<SCITEGIC>MOL_PROPERTY
VdW12
SciTegic.value.DoubleValue
11.389

@<SCITEGIC>MOL_PROPERTY
Bond
SciTegic.value.DoubleValue
0.322

@<SCITEGIC>MOL_PROPERTY
Angle
SciTegic.value.DoubleValue
1.966

@<SCITEGIC>MOL_PROPERTY
Pdih
SciTegic.value.DoubleValue
4.575

@<SCITEGIC>MOL_PROPERTY
Idih
SciTegic.value.DoubleValue
0.000

@<SCITEGIC>MOL_PROPERTY
Tether
SciTegic.value.DoubleValue
0.000

@<TRIPOS>MOLECULE
guest-s15_vm2.mol2 : vm2 ligand conformer 117
          29          28           1
SMALL
USER_CHARGES
 
@<TRIPOS>ATOM
       1    C1      20.314817   17.843898   20.675650 C.3        1 MOL1        -0.2426
       2    H1      19.761983   17.375668   21.498727 H          1 MOL1         0.0959
       3    H2      19.705280   17.762065   19.766429 H          1 MOL1         0.0959
       4    H3      21.232013   17.261955   20.517924 H          1 MOL1         0.0959
       5    C2      20.655875   19.320479   20.980554 C.3        1 MOL1        -0.1410
       6    H4      21.266357   19.714621   20.156199 H          1 MOL1         0.0948
       7    H5      21.286904   19.390004   21.875642 H          1 MOL1         0.0948
       8    C3      19.404235   20.218393   21.135540 C.3        1 MOL1        -0.1435
       9    H6      19.729906   21.261672   21.247705 H          1 MOL1         0.0948
      10    H7      18.832491   20.185621   20.197904 H          1 MOL1         0.0948
      11    C4      18.450840   19.862381   22.308151 C.3        1 MOL1        -0.1435
      12    H8      18.046785   18.848578   22.188052 H          1 MOL1         0.0948
      13    H9      17.581744   20.530331   22.231716 H          1 MOL1         0.0948
      14    C5      19.063410   20.042860   23.722069 C.3        1 MOL1        -0.1435
      15    H10     19.835490   20.824316   23.700829 H          1 MOL1         0.0948
      16    H11     18.272600   20.414085   24.387266 H          1 MOL1         0.0948
      17    C6      19.639133   18.733826   24.321633 C.3        1 MOL1        -0.1500
      18    H12     20.385575   18.312011   23.640533 H          1 MOL1         0.0948
      19    H13     18.840684   17.985015   24.408015 H          1 MOL1         0.0948
      20    C7      20.301146   18.945050   25.700387 C.3        1 MOL1         0.1162
      21    H14     21.071893   19.714928   25.596116 H          1 MOL1         0.0910
      22    C8      20.976143   17.647652   26.173225 C.3        1 MOL1        -0.2491
      23    H15     21.479413   17.800317   27.135935 H          1 MOL1         0.0959
      24    H16     20.243116   16.840287   26.294773 H          1 MOL1         0.0959
      25    H17     21.732955   17.316202   25.451306 H          1 MOL1         0.0959
      26    N1      19.330400   19.441462   26.736792 N.4        1 MOL1        -0.5987
      27    H18     19.791261   19.593839   27.638454 H          1 MOL1         0.3605
      28    H19     18.572306   18.770951   26.889094 H          1 MOL1         0.3605
      29    H20     18.905671   20.329365   26.455916 H          1 MOL1         0.3605
@<TRIPOS>BOND
    1     1     2    1
    2     1     3    1
    3     1     4    1
    4     1     5    1
    5     5     6    1
    6     5     7    1
    7     5     8    1
    8     8     9    1
    9     8    10    1
   10     8    11    1
   11    11    12    1
   12    11    13    1
   13    11    14    1
   14    14    15    1
   15    14    16    1
   16    14    17    1
   17    17    18    1
   18    17    19    1
   19    17    20    1
   20    20    21    1
   21    20    22    1
   22    22    23    1
   23    22    24    1
   24    22    25    1
   25    20    26    1
   26    26    27    1
   27    26    28    1
   28    26    29    1
@<TRIPOS>SUBSTRUCTURE
       1 MOL1            1 RESIDUE      1      MOL     
@<SCITEGIC>MOL_PROPERTY
VM2 Rank
SciTegic.value.IntegerValue
117

@<SCITEGIC>MOL_PROPERTY
Conf_Id
SciTegic.value.IntegerValue
678

@<SCITEGIC>MOL_PROPERTY
Probability
SciTegic.value.DoubleValue
0.01

@<SCITEGIC>MOL_PROPERTY
Sum Probability
SciTegic.value.DoubleValue
99.72

@<SCITEGIC>MOL_PROPERTY
Delta G
SciTegic.value.DoubleValue
4.049

@<SCITEGIC>MOL_PROPERTY
G
SciTegic.value.DoubleValue
37.751

@<SCITEGIC>MOL_PROPERTY
E
SciTegic.value.DoubleValue
-0.463

@<SCITEGIC>MOL_PROPERTY
-TS
SciTegic.value.DoubleValue
38.214

@<SCITEGIC>MOL_PROPERTY
U+W
SciTegic.value.DoubleValue
-24.608

@<SCITEGIC>MOL_PROPERTY
U
SciTegic.value.DoubleValue
27.913

@<SCITEGIC>MOL_PROPERTY
W
SciTegic.value.DoubleValue
-52.521

@<SCITEGIC>MOL_PROPERTY
W(PB)
SciTegic.value.DoubleValue
-54.944

@<SCITEGIC>MOL_PROPERTY
W(SA)
SciTegic.value.DoubleValue
2.423

@<SCITEGIC>MOL_PROPERTY
Valence
SciTegic.value.DoubleValue
6.822

@<SCITEGIC>MOL_PROPERTY
Coulomb
SciTegic.value.DoubleValue
20.150

@<SCITEGIC>MOL_PROPERTY
VdW
SciTegic.value.DoubleValue
0.941

@<SCITEGIC>MOL_PROPERTY
VdW6
SciTegic.value.DoubleValue
-10.666

@<SCITEGIC>MOL_PROPERTY
VdW12
SciTegic.value.DoubleValue
11.608

@<SCITEGIC>MOL_PROPERTY
Bond
SciTegic.value.DoubleValue
0.323

@<SCITEGIC>MOL_PROPERTY
Angle
SciTegic.value.DoubleValue
2.170

@<SCITEGIC>MOL_PROPERTY
Pdih
SciTegic.value.DoubleValue
4.329

@<SCITEGIC>MOL_PROPERTY
Idih
SciTegic.value.DoubleValue
0.000

@<SCITEGIC>MOL_PROPERTY
Tether
SciTegic.value.DoubleValue
0.000

@<TRIPOS>MOLECULE
guest-s15_vm2.mol2 : vm2 ligand conformer 118
          29          28           1
SMALL
USER_CHARGES
 
@<TRIPOS>ATOM
       1    C1      20.182872   20.555361   19.854402 C.3        1 MOL1        -0.2426
       2    H1      21.155746   20.873226   19.457540 H          1 MOL1         0.0959
       3    H2      19.556411   20.249793   19.006225 H          1 MOL1         0.0959
       4    H3      19.712626   21.425378   20.330999 H          1 MOL1         0.0959
       5    C2      20.356548   19.398652   20.861089 C.3        1 MOL1        -0.1410
       6    H4      21.021048   19.723430   21.670750 H          1 MOL1         0.0948
       7    H5      20.859939   18.558205   20.363120 H          1 MOL1         0.0948
       8    C3      18.995463   18.925149   21.425653 C.3        1 MOL1        -0.1435
       9    H6      18.448208   19.769386   21.867016 H          1 MOL1         0.0948
      10    H7      18.381556   18.573357   20.584963 H          1 MOL1         0.0948
      11    C4      19.122783   17.773334   22.456538 C.3        1 MOL1        -0.1435
      12    H8      20.024913   17.179189   22.255731 H          1 MOL1         0.0948
      13    H9      18.278161   17.086493   22.307249 H          1 MOL1         0.0948
      14    C5      19.100392   18.223769   23.940094 C.3        1 MOL1        -0.1435
      15    H10     18.143488   18.720614   24.148070 H          1 MOL1         0.0948
      16    H11     19.120109   17.320649   24.563136 H          1 MOL1         0.0948
      17    C6      20.274544   19.157811   24.337329 C.3        1 MOL1        -0.1500
      18    H12     20.196140   20.095494   23.773925 H          1 MOL1         0.0948
      19    H13     21.225461   18.696566   24.039955 H          1 MOL1         0.0948
      20    C7      20.342311   19.516079   25.840823 C.3        1 MOL1         0.1162
      21    H14     21.160526   20.231932   25.966670 H          1 MOL1         0.0910
      22    C8      20.661108   18.291714   26.716714 C.3        1 MOL1        -0.2491
      23    H15     19.835743   17.570276   26.724704 H          1 MOL1         0.0959
      24    H16     21.562631   17.779605   26.358176 H          1 MOL1         0.0959
      25    H17     20.844628   18.600240   27.753211 H          1 MOL1         0.0959
      26    N1      19.099979   20.214131   26.321357 N.4        1 MOL1        -0.5987
      27    H18     18.907699   21.057709   25.773640 H          1 MOL1         0.3605
      28    H19     19.185648   20.497827   27.301561 H          1 MOL1         0.3605
      29    H20     18.281258   19.605068   26.248069 H          1 MOL1         0.3605
@<TRIPOS>BOND
    1     1     2    1
    2     1     3    1
    3     1     4    1
    4     1     5    1
    5     5     6    1
    6     5     7    1
    7     5     8    1
    8     8     9    1
    9     8    10    1
   10     8    11    1
   11    11    12    1
   12    11    13    1
   13    11    14    1
   14    14    15    1
   15    14    16    1
   16    14    17    1
   17    17    18    1
   18    17    19    1
   19    17    20    1
   20    20    21    1
   21    20    22    1
   22    22    23    1
   23    22    24    1
   24    22    25    1
   25    20    26    1
   26    26    27    1
   27    26    28    1
   28    26    29    1
@<TRIPOS>SUBSTRUCTURE
       1 MOL1            1 RESIDUE      1      MOL     
@<SCITEGIC>MOL_PROPERTY
VM2 Rank
SciTegic.value.IntegerValue
118

@<SCITEGIC>MOL_PROPERTY
Conf_Id
SciTegic.value.IntegerValue
162

@<SCITEGIC>MOL_PROPERTY
Probability
SciTegic.value.DoubleValue
0.01

@<SCITEGIC>MOL_PROPERTY
Sum Probability
SciTegic.value.DoubleValue
99.74

@<SCITEGIC>MOL_PROPERTY
Delta G
SciTegic.value.DoubleValue
4.055

@<SCITEGIC>MOL_PROPERTY
G
SciTegic.value.DoubleValue
37.757

@<SCITEGIC>MOL_PROPERTY
E
SciTegic.value.DoubleValue
-0.140

@<SCITEGIC>MOL_PROPERTY
-TS
SciTegic.value.DoubleValue
37.898

@<SCITEGIC>MOL_PROPERTY
U+W
SciTegic.value.DoubleValue
-24.285

@<SCITEGIC>MOL_PROPERTY
U
SciTegic.value.DoubleValue
28.217

@<SCITEGIC>MOL_PROPERTY
W
SciTegic.value.DoubleValue
-52.502

@<SCITEGIC>MOL_PROPERTY
W(PB)
SciTegic.value.DoubleValue
-54.946

@<SCITEGIC>MOL_PROPERTY
W(SA)
SciTegic.value.DoubleValue
2.444

@<SCITEGIC>MOL_PROPERTY
Valence
SciTegic.value.DoubleValue
6.821

@<SCITEGIC>MOL_PROPERTY
Coulomb
SciTegic.value.DoubleValue
20.147

@<SCITEGIC>MOL_PROPERTY
VdW
SciTegic.value.DoubleValue
1.249

@<SCITEGIC>MOL_PROPERTY
VdW6
SciTegic.value.DoubleValue
-10.236

@<SCITEGIC>MOL_PROPERTY
VdW12
SciTegic.value.DoubleValue
11.486

@<SCITEGIC>MOL_PROPERTY
Bond
SciTegic.value.DoubleValue
0.316

@<SCITEGIC>MOL_PROPERTY
Angle
SciTegic.value.DoubleValue
1.990

@<SCITEGIC>MOL_PROPERTY
Pdih
SciTegic.value.DoubleValue
4.515

@<SCITEGIC>MOL_PROPERTY
Idih
SciTegic.value.DoubleValue
0.000

@<SCITEGIC>MOL_PROPERTY
Tether
SciTegic.value.DoubleValue
0.000

@<TRIPOS>MOLECULE
guest-s15_vm2.mol2 : vm2 ligand conformer 119
          29          28           1
SMALL
USER_CHARGES
 
@<TRIPOS>ATOM
       1    C1      18.430097   19.550648   20.249892 C.3        1 MOL1        -0.2426
       2    H1      17.749500   20.326770   19.876651 H          1 MOL1         0.0959
       3    H2      18.592497   18.831494   19.436577 H          1 MOL1         0.0959
       4    H3      17.920105   19.027059   21.065726 H          1 MOL1         0.0959
       5    C2      19.767773   20.178686   20.705640 C.3        1 MOL1        -0.1410
       6    H4      19.588553   20.945691   21.471721 H          1 MOL1         0.0948
       7    H5      20.202866   20.706942   19.845689 H          1 MOL1         0.0948
       8    C3      20.796515   19.136762   21.215546 C.3        1 MOL1        -0.1435
       9    H6      20.649176   18.175058   20.705108 H          1 MOL1         0.0948
      10    H7      21.799536   19.476228   20.922146 H          1 MOL1         0.0948
      11    C4      20.806615   18.930078   22.751966 C.3        1 MOL1        -0.1435
      12    H8      21.053692   19.882582   23.239388 H          1 MOL1         0.0948
      13    H9      21.623302   18.237992   22.999537 H          1 MOL1         0.0948
      14    C5      19.482763   18.370511   23.327195 C.3        1 MOL1        -0.1435
      15    H10     18.682927   19.112727   23.214900 H          1 MOL1         0.0948
      16    H11     19.177355   17.492722   22.741348 H          1 MOL1         0.0948
      17    C6      19.596057   17.954795   24.816147 C.3        1 MOL1        -0.1500
      18    H12     20.323156   17.136102   24.899930 H          1 MOL1         0.0948
      19    H13     18.633151   17.544406   25.148154 H          1 MOL1         0.0948
      20    C7      20.017721   19.101364   25.762146 C.3        1 MOL1         0.1162
      21    H14     20.984394   19.487708   25.425756 H          1 MOL1         0.0910
      22    C8      20.184090   18.577243   27.197169 C.3        1 MOL1        -0.2491
      23    H15     20.521115   19.378400   27.866454 H          1 MOL1         0.0959
      24    H16     19.238285   18.180926   27.587421 H          1 MOL1         0.0959
      25    H17     20.932017   17.775412   27.234717 H          1 MOL1         0.0959
      26    N1      19.054368   20.255914   25.728297 N.4        1 MOL1        -0.5987
      27    H18     18.963472   20.635224   24.781888 H          1 MOL1         0.3605
      28    H19     19.362019   21.018555   26.338516 H          1 MOL1         0.3605
      29    H20     18.121471   19.971469   26.038628 H          1 MOL1         0.3605
@<TRIPOS>BOND
    1     1     2    1
    2     1     3    1
    3     1     4    1
    4     1     5    1
    5     5     6    1
    6     5     7    1
    7     5     8    1
    8     8     9    1
    9     8    10    1
   10     8    11    1
   11    11    12    1
   12    11    13    1
   13    11    14    1
   14    14    15    1
   15    14    16    1
   16    14    17    1
   17    17    18    1
   18    17    19    1
   19    17    20    1
   20    20    21    1
   21    20    22    1
   22    22    23    1
   23    22    24    1
   24    22    25    1
   25    20    26    1
   26    26    27    1
   27    26    28    1
   28    26    29    1
@<TRIPOS>SUBSTRUCTURE
       1 MOL1            1 RESIDUE      1      MOL     
@<SCITEGIC>MOL_PROPERTY
VM2 Rank
SciTegic.value.IntegerValue
119

@<SCITEGIC>MOL_PROPERTY
Conf_Id
SciTegic.value.IntegerValue
973

@<SCITEGIC>MOL_PROPERTY
Probability
SciTegic.value.DoubleValue
0.01

@<SCITEGIC>MOL_PROPERTY
Sum Probability
SciTegic.value.DoubleValue
99.75

@<SCITEGIC>MOL_PROPERTY
Delta G
SciTegic.value.DoubleValue
4.095

@<SCITEGIC>MOL_PROPERTY
G
SciTegic.value.DoubleValue
37.797

@<SCITEGIC>MOL_PROPERTY
E
SciTegic.value.DoubleValue
-0.123

@<SCITEGIC>MOL_PROPERTY
-TS
SciTegic.value.DoubleValue
37.920

@<SCITEGIC>MOL_PROPERTY
U+W
SciTegic.value.DoubleValue
-24.268

@<SCITEGIC>MOL_PROPERTY
U
SciTegic.value.DoubleValue
28.133

@<SCITEGIC>MOL_PROPERTY
W
SciTegic.value.DoubleValue
-52.401

@<SCITEGIC>MOL_PROPERTY
W(PB)
SciTegic.value.DoubleValue
-54.855

@<SCITEGIC>MOL_PROPERTY
W(SA)
SciTegic.value.DoubleValue
2.454

@<SCITEGIC>MOL_PROPERTY
Valence
SciTegic.value.DoubleValue
6.427

@<SCITEGIC>MOL_PROPERTY
Coulomb
SciTegic.value.DoubleValue
20.720

@<SCITEGIC>MOL_PROPERTY
VdW
SciTegic.value.DoubleValue
0.986

@<SCITEGIC>MOL_PROPERTY
VdW6
SciTegic.value.DoubleValue
-10.459

@<SCITEGIC>MOL_PROPERTY
VdW12
SciTegic.value.DoubleValue
11.445

@<SCITEGIC>MOL_PROPERTY
Bond
SciTegic.value.DoubleValue
0.299

@<SCITEGIC>MOL_PROPERTY
Angle
SciTegic.value.DoubleValue
1.839

@<SCITEGIC>MOL_PROPERTY
Pdih
SciTegic.value.DoubleValue
4.289

@<SCITEGIC>MOL_PROPERTY
Idih
SciTegic.value.DoubleValue
0.000

@<SCITEGIC>MOL_PROPERTY
Tether
SciTegic.value.DoubleValue
0.000

@<TRIPOS>MOLECULE
guest-s15_vm2.mol2 : vm2 ligand conformer 120
          29          28           1
SMALL
USER_CHARGES
 
@<TRIPOS>ATOM
       1    C1      20.267445   20.762601   20.647616 C.3        1 MOL1        -0.2426
       2    H1      19.362774   21.343402   20.425856 H          1 MOL1         0.0959
       3    H2      20.563024   20.967412   21.684086 H          1 MOL1         0.0959
       4    H3      21.070964   21.130178   19.996405 H          1 MOL1         0.0959
       5    C2      20.029587   19.253545   20.414180 C.3        1 MOL1        -0.1410
       6    H4      20.939788   18.692188   20.664485 H          1 MOL1         0.0948
       7    H5      19.857152   19.084544   19.342116 H          1 MOL1         0.0948
       8    C3      18.819696   18.690782   21.202811 C.3        1 MOL1        -0.1435
       9    H6      17.905035   19.190814   20.855695 H          1 MOL1         0.0948
      10    H7      18.695572   17.628783   20.950004 H          1 MOL1         0.0948
      11    C4      18.913088   18.835026   22.743490 C.3        1 MOL1        -0.1435
      12    H8      18.001693   18.409888   23.185916 H          1 MOL1         0.0948
      13    H9      18.921114   19.900209   23.000925 H          1 MOL1         0.0948
      14    C5      20.151968   18.128858   23.348657 C.3        1 MOL1        -0.1435
      15    H10     20.232134   17.124359   22.910755 H          1 MOL1         0.0948
      16    H11     21.065195   18.664217   23.055959 H          1 MOL1         0.0948
      17    C6      20.124902   17.976801   24.892281 C.3        1 MOL1        -0.1500
      18    H12     20.983721   17.350758   25.169005 H          1 MOL1         0.0948
      19    H13     19.233508   17.416077   25.203082 H          1 MOL1         0.0948
      20    C7      20.213466   19.307363   25.676580 C.3        1 MOL1         0.1162
      21    H14     20.936888   19.956800   25.174165 H          1 MOL1         0.0910
      22    C8      20.709963   19.051603   27.109163 C.3        1 MOL1        -0.2491
      23    H15     20.791838   19.993184   27.666124 H          1 MOL1         0.0959
      24    H16     20.024914   18.390030   27.654197 H          1 MOL1         0.0959
      25    H17     21.702751   18.584596   27.101427 H          1 MOL1         0.0959
      26    N1      18.905885   20.049421   25.719222 N.4        1 MOL1        -0.5987
      27    H18     18.188056   19.508078   26.208314 H          1 MOL1         0.3605
      28    H19     18.556763   20.245172   24.778405 H          1 MOL1         0.3605
      29    H20     19.000053   20.944718   26.207405 H          1 MOL1         0.3605
@<TRIPOS>BOND
    1     1     2    1
    2     1     3    1
    3     1     4    1
    4     1     5    1
    5     5     6    1
    6     5     7    1
    7     5     8    1
    8     8     9    1
    9     8    10    1
   10     8    11    1
   11    11    12    1
   12    11    13    1
   13    11    14    1
   14    14    15    1
   15    14    16    1
   16    14    17    1
   17    17    18    1
   18    17    19    1
   19    17    20    1
   20    20    21    1
   21    20    22    1
   22    22    23    1
   23    22    24    1
   24    22    25    1
   25    20    26    1
   26    26    27    1
   27    26    28    1
   28    26    29    1
@<TRIPOS>SUBSTRUCTURE
       1 MOL1            1 RESIDUE      1      MOL     
@<SCITEGIC>MOL_PROPERTY
VM2 Rank
SciTegic.value.IntegerValue
120

@<SCITEGIC>MOL_PROPERTY
Conf_Id
SciTegic.value.IntegerValue
1014

@<SCITEGIC>MOL_PROPERTY
Probability
SciTegic.value.DoubleValue
0.01

@<SCITEGIC>MOL_PROPERTY
Sum Probability
SciTegic.value.DoubleValue
99.76

@<SCITEGIC>MOL_PROPERTY
Delta G
SciTegic.value.DoubleValue
4.111

@<SCITEGIC>MOL_PROPERTY
G
SciTegic.value.DoubleValue
37.813

@<SCITEGIC>MOL_PROPERTY
E
SciTegic.value.DoubleValue
0.008

@<SCITEGIC>MOL_PROPERTY
-TS
SciTegic.value.DoubleValue
37.804

@<SCITEGIC>MOL_PROPERTY
U+W
SciTegic.value.DoubleValue
-24.136

@<SCITEGIC>MOL_PROPERTY
U
SciTegic.value.DoubleValue
28.192

@<SCITEGIC>MOL_PROPERTY
W
SciTegic.value.DoubleValue
-52.328

@<SCITEGIC>MOL_PROPERTY
W(PB)
SciTegic.value.DoubleValue
-54.784

@<SCITEGIC>MOL_PROPERTY
W(SA)
SciTegic.value.DoubleValue
2.456

@<SCITEGIC>MOL_PROPERTY
Valence
SciTegic.value.DoubleValue
5.839

@<SCITEGIC>MOL_PROPERTY
Coulomb
SciTegic.value.DoubleValue
21.296

@<SCITEGIC>MOL_PROPERTY
VdW
SciTegic.value.DoubleValue
1.058

@<SCITEGIC>MOL_PROPERTY
VdW6
SciTegic.value.DoubleValue
-10.711

@<SCITEGIC>MOL_PROPERTY
VdW12
SciTegic.value.DoubleValue
11.769

@<SCITEGIC>MOL_PROPERTY
Bond
SciTegic.value.DoubleValue
0.323

@<SCITEGIC>MOL_PROPERTY
Angle
SciTegic.value.DoubleValue
2.126

@<SCITEGIC>MOL_PROPERTY
Pdih
SciTegic.value.DoubleValue
3.390

@<SCITEGIC>MOL_PROPERTY
Idih
SciTegic.value.DoubleValue
0.000

@<SCITEGIC>MOL_PROPERTY
Tether
SciTegic.value.DoubleValue
0.000

@<TRIPOS>MOLECULE
guest-s15_vm2.mol2 : vm2 ligand conformer 121
          29          28           1
SMALL
USER_CHARGES
 
@<TRIPOS>ATOM
       1    C1      19.385923   18.112438   20.104437 C.3        1 MOL1        -0.2426
       2    H1      19.774094   17.224442   19.589005 H          1 MOL1         0.0959
       3    H2      18.747583   17.766965   20.924859 H          1 MOL1         0.0959
       4    H3      18.754620   18.660637   19.393120 H          1 MOL1         0.0959
       5    C2      20.550116   18.998712   20.605077 C.3        1 MOL1        -0.1410
       6    H4      21.158580   19.280734   19.734388 H          1 MOL1         0.0948
       7    H5      21.214012   18.421212   21.263307 H          1 MOL1         0.0948
       8    C3      20.077928   20.292816   21.316614 C.3        1 MOL1        -0.1435
       9    H6      20.789858   21.094158   21.075029 H          1 MOL1         0.0948
      10    H7      19.112762   20.621848   20.907577 H          1 MOL1         0.0948
      11    C4      19.997206   20.192404   22.861510 C.3        1 MOL1        -0.1435
      12    H8      19.733178   21.182863   23.257102 H          1 MOL1         0.0948
      13    H9      20.994801   19.959332   23.257204 H          1 MOL1         0.0948
      14    C5      18.971446   19.154747   23.378597 C.3        1 MOL1        -0.1435
      15    H10     18.009298   19.315408   22.873260 H          1 MOL1         0.0948
      16    H11     19.295862   18.141825   23.110707 H          1 MOL1         0.0948
      17    C6      18.744017   19.237299   24.909937 C.3        1 MOL1        -0.1500
      18    H12     18.004973   18.479985   25.203236 H          1 MOL1         0.0948
      19    H13     18.290721   20.210277   25.141044 H          1 MOL1         0.0948
      20    C7      20.018871   19.067684   25.769579 C.3        1 MOL1         0.1162
      21    H14     20.743900   19.828427   25.465507 H          1 MOL1         0.0910
      22    C8      20.661192   17.681276   25.584984 C.3        1 MOL1        -0.2491
      23    H15     19.951078   16.880081   25.824676 H          1 MOL1         0.0959
      24    H16     21.007351   17.537125   24.554867 H          1 MOL1         0.0959
      25    H17     21.534305   17.569527   26.239546 H          1 MOL1         0.0959
      26    N1      19.729301   19.318624   27.223266 N.4        1 MOL1        -0.5987
      27    H18     19.339955   20.253750   27.374295 H          1 MOL1         0.3605
      28    H19     20.578046   19.246482   27.791681 H          1 MOL1         0.3605
      29    H20     19.056074   18.641785   27.592559 H          1 MOL1         0.3605
@<TRIPOS>BOND
    1     1     2    1
    2     1     3    1
    3     1     4    1
    4     1     5    1
    5     5     6    1
    6     5     7    1
    7     5     8    1
    8     8     9    1
    9     8    10    1
   10     8    11    1
   11    11    12    1
   12    11    13    1
   13    11    14    1
   14    14    15    1
   15    14    16    1
   16    14    17    1
   17    17    18    1
   18    17    19    1
   19    17    20    1
   20    20    21    1
   21    20    22    1
   22    22    23    1
   23    22    24    1
   24    22    25    1
   25    20    26    1
   26    26    27    1
   27    26    28    1
   28    26    29    1
@<TRIPOS>SUBSTRUCTURE
       1 MOL1            1 RESIDUE      1      MOL     
@<SCITEGIC>MOL_PROPERTY
VM2 Rank
SciTegic.value.IntegerValue
121

@<SCITEGIC>MOL_PROPERTY
Conf_Id
SciTegic.value.IntegerValue
691

@<SCITEGIC>MOL_PROPERTY
Probability
SciTegic.value.DoubleValue
0.01

@<SCITEGIC>MOL_PROPERTY
Sum Probability
SciTegic.value.DoubleValue
99.77

@<SCITEGIC>MOL_PROPERTY
Delta G
SciTegic.value.DoubleValue
4.137

@<SCITEGIC>MOL_PROPERTY
G
SciTegic.value.DoubleValue
37.838

@<SCITEGIC>MOL_PROPERTY
E
SciTegic.value.DoubleValue
-0.183

@<SCITEGIC>MOL_PROPERTY
-TS
SciTegic.value.DoubleValue
38.022

@<SCITEGIC>MOL_PROPERTY
U+W
SciTegic.value.DoubleValue
-24.328

@<SCITEGIC>MOL_PROPERTY
U
SciTegic.value.DoubleValue
28.040

@<SCITEGIC>MOL_PROPERTY
W
SciTegic.value.DoubleValue
-52.368

@<SCITEGIC>MOL_PROPERTY
W(PB)
SciTegic.value.DoubleValue
-54.808

@<SCITEGIC>MOL_PROPERTY
W(SA)
SciTegic.value.DoubleValue
2.440

@<SCITEGIC>MOL_PROPERTY
Valence
SciTegic.value.DoubleValue
6.918

@<SCITEGIC>MOL_PROPERTY
Coulomb
SciTegic.value.DoubleValue
20.071

@<SCITEGIC>MOL_PROPERTY
VdW
SciTegic.value.DoubleValue
1.051

@<SCITEGIC>MOL_PROPERTY
VdW6
SciTegic.value.DoubleValue
-10.718

@<SCITEGIC>MOL_PROPERTY
VdW12
SciTegic.value.DoubleValue
11.770

@<SCITEGIC>MOL_PROPERTY
Bond
SciTegic.value.DoubleValue
0.310

@<SCITEGIC>MOL_PROPERTY
Angle
SciTegic.value.DoubleValue
2.143

@<SCITEGIC>MOL_PROPERTY
Pdih
SciTegic.value.DoubleValue
4.465

@<SCITEGIC>MOL_PROPERTY
Idih
SciTegic.value.DoubleValue
0.000

@<SCITEGIC>MOL_PROPERTY
Tether
SciTegic.value.DoubleValue
0.000

@<TRIPOS>MOLECULE
guest-s15_vm2.mol2 : vm2 ligand conformer 122
          29          28           1
SMALL
USER_CHARGES
 
@<TRIPOS>ATOM
       1    C1      18.924137   18.455104   19.934409 C.3        1 MOL1        -0.2426
       2    H1      19.166664   19.076923   19.062909 H          1 MOL1         0.0959
       3    H2      18.682862   17.448203   19.569922 H          1 MOL1         0.0959
       4    H3      18.019997   18.861748   20.403238 H          1 MOL1         0.0959
       5    C2      20.109557   18.401397   20.925314 C.3        1 MOL1        -0.1410
       6    H4      20.955658   17.905906   20.429112 H          1 MOL1         0.0948
       7    H5      19.843476   17.767134   21.779535 H          1 MOL1         0.0948
       8    C3      20.569540   19.803355   21.402024 C.3        1 MOL1        -0.1435
       9    H6      21.551841   19.723316   21.887412 H          1 MOL1         0.0948
      10    H7      20.732061   20.431165   20.515070 H          1 MOL1         0.0948
      11    C4      19.578244   20.527540   22.353368 C.3        1 MOL1        -0.1435
      12    H8      18.545797   20.213171   22.156480 H          1 MOL1         0.0948
      13    H9      19.607260   21.601058   22.121115 H          1 MOL1         0.0948
      14    C5      19.895514   20.369229   23.862813 C.3        1 MOL1        -0.1435
      15    H10     20.889633   20.787792   24.072457 H          1 MOL1         0.0948
      16    H11     19.179739   20.985361   24.422313 H          1 MOL1         0.0948
      17    C6      19.834909   18.908074   24.374030 C.3        1 MOL1        -0.1500
      18    H12     20.609649   18.321178   23.865630 H          1 MOL1         0.0948
      19    H13     18.867973   18.459868   24.109721 H          1 MOL1         0.0948
      20    C7      20.063424   18.791007   25.896703 C.3        1 MOL1         0.1162
      21    H14     21.010828   19.281599   26.140401 H          1 MOL1         0.0910
      22    C8      20.164776   17.313674   26.308813 C.3        1 MOL1        -0.2491
      23    H15     20.361348   17.223116   27.384251 H          1 MOL1         0.0959
      24    H16     19.235963   16.774355   26.084314 H          1 MOL1         0.0959
      25    H17     20.985785   16.815894   25.777853 H          1 MOL1         0.0959
      26    N1      18.995898   19.486619   26.696526 N.4        1 MOL1        -0.5987
      27    H18     18.946095   20.482895   26.467465 H          1 MOL1         0.3605
      28    H19     19.173931   19.412179   27.702199 H          1 MOL1         0.3605
      29    H20     18.072908   19.082193   26.517595 H          1 MOL1         0.3605
@<TRIPOS>BOND
    1     1     2    1
    2     1     3    1
    3     1     4    1
    4     1     5    1
    5     5     6    1
    6     5     7    1
    7     5     8    1
    8     8     9    1
    9     8    10    1
   10     8    11    1
   11    11    12    1
   12    11    13    1
   13    11    14    1
   14    14    15    1
   15    14    16    1
   16    14    17    1
   17    17    18    1
   18    17    19    1
   19    17    20    1
   20    20    21    1
   21    20    22    1
   22    22    23    1
   23    22    24    1
   24    22    25    1
   25    20    26    1
   26    26    27    1
   27    26    28    1
   28    26    29    1
@<TRIPOS>SUBSTRUCTURE
       1 MOL1            1 RESIDUE      1      MOL     
@<SCITEGIC>MOL_PROPERTY
VM2 Rank
SciTegic.value.IntegerValue
122

@<SCITEGIC>MOL_PROPERTY
Conf_Id
SciTegic.value.IntegerValue
317

@<SCITEGIC>MOL_PROPERTY
Probability
SciTegic.value.DoubleValue
0.01

@<SCITEGIC>MOL_PROPERTY
Sum Probability
SciTegic.value.DoubleValue
99.78

@<SCITEGIC>MOL_PROPERTY
Delta G
SciTegic.value.DoubleValue
4.149

@<SCITEGIC>MOL_PROPERTY
G
SciTegic.value.DoubleValue
37.851

@<SCITEGIC>MOL_PROPERTY
E
SciTegic.value.DoubleValue
0.036

@<SCITEGIC>MOL_PROPERTY
-TS
SciTegic.value.DoubleValue
37.815

@<SCITEGIC>MOL_PROPERTY
U+W
SciTegic.value.DoubleValue
-24.109

@<SCITEGIC>MOL_PROPERTY
U
SciTegic.value.DoubleValue
28.258

@<SCITEGIC>MOL_PROPERTY
W
SciTegic.value.DoubleValue
-52.367

@<SCITEGIC>MOL_PROPERTY
W(PB)
SciTegic.value.DoubleValue
-54.799

@<SCITEGIC>MOL_PROPERTY
W(SA)
SciTegic.value.DoubleValue
2.432

@<SCITEGIC>MOL_PROPERTY
Valence
SciTegic.value.DoubleValue
6.944

@<SCITEGIC>MOL_PROPERTY
Coulomb
SciTegic.value.DoubleValue
20.034

@<SCITEGIC>MOL_PROPERTY
VdW
SciTegic.value.DoubleValue
1.280

@<SCITEGIC>MOL_PROPERTY
VdW6
SciTegic.value.DoubleValue
-10.156

@<SCITEGIC>MOL_PROPERTY
VdW12
SciTegic.value.DoubleValue
11.436

@<SCITEGIC>MOL_PROPERTY
Bond
SciTegic.value.DoubleValue
0.326

@<SCITEGIC>MOL_PROPERTY
Angle
SciTegic.value.DoubleValue
1.949

@<SCITEGIC>MOL_PROPERTY
Pdih
SciTegic.value.DoubleValue
4.669

@<SCITEGIC>MOL_PROPERTY
Idih
SciTegic.value.DoubleValue
0.000

@<SCITEGIC>MOL_PROPERTY
Tether
SciTegic.value.DoubleValue
0.000

@<TRIPOS>MOLECULE
guest-s15_vm2.mol2 : vm2 ligand conformer 123
          29          28           1
SMALL
USER_CHARGES
 
@<TRIPOS>ATOM
       1    C1      21.319207   19.147816   20.818217 C.3        1 MOL1        -0.2426
       2    H1      21.614347   19.326466   21.858633 H          1 MOL1         0.0959
       3    H2      21.226305   18.065590   20.659988 H          1 MOL1         0.0959
       4    H3      22.134832   19.512229   20.180386 H          1 MOL1         0.0959
       5    C2      20.001771   19.876850   20.477185 C.3        1 MOL1        -0.1410
       6    H4      19.847583   19.831782   19.390017 H          1 MOL1         0.0948
       7    H5      20.099077   20.942742   20.726297 H          1 MOL1         0.0948
       8    C3      18.746930   19.291181   21.173431 C.3        1 MOL1        -0.1435
       9    H6      17.875551   19.848030   20.801968 H          1 MOL1         0.0948
      10    H7      18.589613   18.251465   20.855394 H          1 MOL1         0.0948
      11    C4      18.753333   19.387538   22.721549 C.3        1 MOL1        -0.1435
      12    H8      17.720444   19.548561   23.059956 H          1 MOL1         0.0948
      13    H9      19.318794   20.275098   23.034747 H          1 MOL1         0.0948
      14    C5      19.294494   18.112819   23.419003 C.3        1 MOL1        -0.1435
      15    H10     18.731904   17.241576   23.056575 H          1 MOL1         0.0948
      16    H11     20.337767   17.929596   23.139413 H          1 MOL1         0.0948
      17    C6      19.165333   18.164248   24.963337 C.3        1 MOL1        -0.1500
      18    H12     19.544117   17.223952   25.385385 H          1 MOL1         0.0948
      19    H13     18.098560   18.204541   25.220164 H          1 MOL1         0.0948
      20    C7      19.883294   19.354311   25.642272 C.3        1 MOL1         0.1162
      21    H14     19.499835   20.282604   25.208813 H          1 MOL1         0.0910
      22    C8      21.406488   19.308904   25.428581 C.3        1 MOL1        -0.2491
      23    H15     21.831336   18.367909   25.799609 H          1 MOL1         0.0959
      24    H16     21.661724   19.406511   24.367498 H          1 MOL1         0.0959
      25    H17     21.895984   20.135709   25.957786 H          1 MOL1         0.0959
      26    N1      19.565148   19.412332   27.110426 N.4        1 MOL1        -0.5987
      27    H18     18.557033   19.485794   27.275243 H          1 MOL1         0.3605
      28    H19     20.006711   20.221058   27.557242 H          1 MOL1         0.3605
      29    H20     19.896383   18.575506   27.597998 H          1 MOL1         0.3605
@<TRIPOS>BOND
    1     1     2    1
    2     1     3    1
    3     1     4    1
    4     1     5    1
    5     5     6    1
    6     5     7    1
    7     5     8    1
    8     8     9    1
    9     8    10    1
   10     8    11    1
   11    11    12    1
   12    11    13    1
   13    11    14    1
   14    14    15    1
   15    14    16    1
   16    14    17    1
   17    17    18    1
   18    17    19    1
   19    17    20    1
   20    20    21    1
   21    20    22    1
   22    22    23    1
   23    22    24    1
   24    22    25    1
   25    20    26    1
   26    26    27    1
   27    26    28    1
   28    26    29    1
@<TRIPOS>SUBSTRUCTURE
       1 MOL1            1 RESIDUE      1      MOL     
@<SCITEGIC>MOL_PROPERTY
VM2 Rank
SciTegic.value.IntegerValue
123

@<SCITEGIC>MOL_PROPERTY
Conf_Id
SciTegic.value.IntegerValue
215

@<SCITEGIC>MOL_PROPERTY
Probability
SciTegic.value.DoubleValue
0.01

@<SCITEGIC>MOL_PROPERTY
Sum Probability
SciTegic.value.DoubleValue
99.79

@<SCITEGIC>MOL_PROPERTY
Delta G
SciTegic.value.DoubleValue
4.157

@<SCITEGIC>MOL_PROPERTY
G
SciTegic.value.DoubleValue
37.859

@<SCITEGIC>MOL_PROPERTY
E
SciTegic.value.DoubleValue
-0.263

@<SCITEGIC>MOL_PROPERTY
-TS
SciTegic.value.DoubleValue
38.123

@<SCITEGIC>MOL_PROPERTY
U+W
SciTegic.value.DoubleValue
-24.408

@<SCITEGIC>MOL_PROPERTY
U
SciTegic.value.DoubleValue
28.098

@<SCITEGIC>MOL_PROPERTY
W
SciTegic.value.DoubleValue
-52.505

@<SCITEGIC>MOL_PROPERTY
W(PB)
SciTegic.value.DoubleValue
-54.915

@<SCITEGIC>MOL_PROPERTY
W(SA)
SciTegic.value.DoubleValue
2.409

@<SCITEGIC>MOL_PROPERTY
Valence
SciTegic.value.DoubleValue
6.979

@<SCITEGIC>MOL_PROPERTY
Coulomb
SciTegic.value.DoubleValue
20.251

@<SCITEGIC>MOL_PROPERTY
VdW
SciTegic.value.DoubleValue
0.868

@<SCITEGIC>MOL_PROPERTY
VdW6
SciTegic.value.DoubleValue
-10.914

@<SCITEGIC>MOL_PROPERTY
VdW12
SciTegic.value.DoubleValue
11.782

@<SCITEGIC>MOL_PROPERTY
Bond
SciTegic.value.DoubleValue
0.321

@<SCITEGIC>MOL_PROPERTY
Angle
SciTegic.value.DoubleValue
2.264

@<SCITEGIC>MOL_PROPERTY
Pdih
SciTegic.value.DoubleValue
4.394

@<SCITEGIC>MOL_PROPERTY
Idih
SciTegic.value.DoubleValue
0.000

@<SCITEGIC>MOL_PROPERTY
Tether
SciTegic.value.DoubleValue
0.000

@<TRIPOS>MOLECULE
guest-s15_vm2.mol2 : vm2 ligand conformer 124
          29          28           1
SMALL
USER_CHARGES
 
@<TRIPOS>ATOM
       1    C1      18.503157   19.337130   20.050507 C.3        1 MOL1        -0.2426
       2    H1      17.930441   19.010567   20.925506 H          1 MOL1         0.0959
       3    H2      18.228408   20.378266   19.836959 H          1 MOL1         0.0959
       4    H3      18.183117   18.726582   19.196284 H          1 MOL1         0.0959
       5    C2      20.028223   19.203550   20.269618 C.3        1 MOL1        -0.1410
       6    H4      20.532192   19.530578   19.349328 H          1 MOL1         0.0948
       7    H5      20.304017   18.148649   20.406264 H          1 MOL1         0.0948
       8    C3      20.555726   20.056631   21.451882 C.3        1 MOL1        -0.1435
       9    H6      21.547310   20.442989   21.178242 H          1 MOL1         0.0948
      10    H7      19.922349   20.943186   21.593098 H          1 MOL1         0.0948
      11    C4      20.707907   19.291499   22.791884 C.3        1 MOL1        -0.1435
      12    H8      21.155431   19.979565   23.520579 H          1 MOL1         0.0948
      13    H9      21.428098   18.471828   22.662977 H          1 MOL1         0.0948
      14    C5      19.381508   18.725143   23.355800 C.3        1 MOL1        -0.1435
      15    H10     18.627233   19.521236   23.408550 H          1 MOL1         0.0948
      16    H11     18.988583   17.971817   22.661182 H          1 MOL1         0.0948
      17    C6      19.543148   18.050852   24.742676 C.3        1 MOL1        -0.1500
      18    H12     20.239340   17.207072   24.646233 H          1 MOL1         0.0948
      19    H13     18.579063   17.619343   25.043031 H          1 MOL1         0.0948
      20    C7      20.046976   18.994535   25.857912 C.3        1 MOL1         0.1162
      21    H14     21.021574   19.392183   25.560546 H          1 MOL1         0.0910
      22    C8      20.228633   18.219282   27.172354 C.3        1 MOL1        -0.2491
      23    H15     20.936586   17.391373   27.041529 H          1 MOL1         0.0959
      24    H16     20.624315   18.874637   27.958056 H          1 MOL1         0.0959
      25    H17     19.276068   17.802304   27.522585 H          1 MOL1         0.0959
      26    N1      19.140722   20.177378   26.061368 N.4        1 MOL1        -0.5987
      27    H18     19.044251   20.722523   25.200265 H          1 MOL1         0.3605
      28    H19     19.501044   20.805532   26.785358 H          1 MOL1         0.3605
      29    H20     18.203260   19.883439   26.348089 H          1 MOL1         0.3605
@<TRIPOS>BOND
    1     1     2    1
    2     1     3    1
    3     1     4    1
    4     1     5    1
    5     5     6    1
    6     5     7    1
    7     5     8    1
    8     8     9    1
    9     8    10    1
   10     8    11    1
   11    11    12    1
   12    11    13    1
   13    11    14    1
   14    14    15    1
   15    14    16    1
   16    14    17    1
   17    17    18    1
   18    17    19    1
   19    17    20    1
   20    20    21    1
   21    20    22    1
   22    22    23    1
   23    22    24    1
   24    22    25    1
   25    20    26    1
   26    26    27    1
   27    26    28    1
   28    26    29    1
@<TRIPOS>SUBSTRUCTURE
       1 MOL1            1 RESIDUE      1      MOL     
@<SCITEGIC>MOL_PROPERTY
VM2 Rank
SciTegic.value.IntegerValue
124

@<SCITEGIC>MOL_PROPERTY
Conf_Id
SciTegic.value.IntegerValue
1047

@<SCITEGIC>MOL_PROPERTY
Probability
SciTegic.value.DoubleValue
0.01

@<SCITEGIC>MOL_PROPERTY
Sum Probability
SciTegic.value.DoubleValue
99.80

@<SCITEGIC>MOL_PROPERTY
Delta G
SciTegic.value.DoubleValue
4.170

@<SCITEGIC>MOL_PROPERTY
G
SciTegic.value.DoubleValue
37.872

@<SCITEGIC>MOL_PROPERTY
E
SciTegic.value.DoubleValue
-0.035

@<SCITEGIC>MOL_PROPERTY
-TS
SciTegic.value.DoubleValue
37.906

@<SCITEGIC>MOL_PROPERTY
U+W
SciTegic.value.DoubleValue
-24.179

@<SCITEGIC>MOL_PROPERTY
U
SciTegic.value.DoubleValue
28.057

@<SCITEGIC>MOL_PROPERTY
W
SciTegic.value.DoubleValue
-52.236

@<SCITEGIC>MOL_PROPERTY
W(PB)
SciTegic.value.DoubleValue
-54.697

@<SCITEGIC>MOL_PROPERTY
W(SA)
SciTegic.value.DoubleValue
2.460

@<SCITEGIC>MOL_PROPERTY
Valence
SciTegic.value.DoubleValue
6.543

@<SCITEGIC>MOL_PROPERTY
Coulomb
SciTegic.value.DoubleValue
20.387

@<SCITEGIC>MOL_PROPERTY
VdW
SciTegic.value.DoubleValue
1.128

@<SCITEGIC>MOL_PROPERTY
VdW6
SciTegic.value.DoubleValue
-10.342

@<SCITEGIC>MOL_PROPERTY
VdW12
SciTegic.value.DoubleValue
11.470

@<SCITEGIC>MOL_PROPERTY
Bond
SciTegic.value.DoubleValue
0.308

@<SCITEGIC>MOL_PROPERTY
Angle
SciTegic.value.DoubleValue
1.937

@<SCITEGIC>MOL_PROPERTY
Pdih
SciTegic.value.DoubleValue
4.297

@<SCITEGIC>MOL_PROPERTY
Idih
SciTegic.value.DoubleValue
0.000

@<SCITEGIC>MOL_PROPERTY
Tether
SciTegic.value.DoubleValue
0.000

@<TRIPOS>MOLECULE
guest-s15_vm2.mol2 : vm2 ligand conformer 125
          29          28           1
SMALL
USER_CHARGES
 
@<TRIPOS>ATOM
       1    C1      19.560052   19.233709   19.127169 C.3        1 MOL1        -0.2426
       2    H1      18.547497   19.591725   18.899614 H          1 MOL1         0.0959
       3    H2      20.247649   19.683044   18.398921 H          1 MOL1         0.0959
       4    H3      19.578891   18.145682   18.981947 H          1 MOL1         0.0959
       5    C2      19.970909   19.607691   20.567115 C.3        1 MOL1        -0.1410
       6    H4      19.970543   20.701512   20.672932 H          1 MOL1         0.0948
       7    H5      21.001293   19.271229   20.740434 H          1 MOL1         0.0948
       8    C3      19.017029   18.981332   21.611989 C.3        1 MOL1        -0.1435
       9    H6      17.985389   19.266714   21.363714 H          1 MOL1         0.0948
      10    H7      19.057827   17.885483   21.543392 H          1 MOL1         0.0948
      11    C4      19.308362   19.423264   23.067396 C.3        1 MOL1        -0.1435
      12    H8      18.481368   19.064547   23.690996 H          1 MOL1         0.0948
      13    H9      19.300588   20.520337   23.126496 H          1 MOL1         0.0948
      14    C5      20.645014   18.872442   23.625313 C.3        1 MOL1        -0.1435
      15    H10     20.620511   17.774603   23.624886 H          1 MOL1         0.0948
      16    H11     21.461438   19.150721   22.947492 H          1 MOL1         0.0948
      17    C6      21.023768   19.396811   25.039443 C.3        1 MOL1        -0.1500
      18    H12     21.163008   20.484972   24.997017 H          1 MOL1         0.0948
      19    H13     22.010991   18.987712   25.291565 H          1 MOL1         0.0948
      20    C7      20.067678   19.057381   26.211494 C.3        1 MOL1         0.1162
      21    H14     20.605371   19.294835   27.134641 H          1 MOL1         0.0910
      22    C8      19.706706   17.562691   26.263933 C.3        1 MOL1        -0.2491
      23    H15     19.151545   17.333587   27.181757 H          1 MOL1         0.0959
      24    H16     19.083235   17.266386   25.411937 H          1 MOL1         0.0959
      25    H17     20.612675   16.944025   26.259441 H          1 MOL1         0.0959
      26    N1      18.836481   19.920681   26.240148 N.4        1 MOL1        -0.5987
      27    H18     19.077742   20.915160   26.279044 H          1 MOL1         0.3605
      28    H19     18.255602   19.715137   27.058125 H          1 MOL1         0.3605
      29    H20     18.260750   19.775523   25.408403 H          1 MOL1         0.3605
@<TRIPOS>BOND
    1     1     2    1
    2     1     3    1
    3     1     4    1
    4     1     5    1
    5     5     6    1
    6     5     7    1
    7     5     8    1
    8     8     9    1
    9     8    10    1
   10     8    11    1
   11    11    12    1
   12    11    13    1
   13    11    14    1
   14    14    15    1
   15    14    16    1
   16    14    17    1
   17    17    18    1
   18    17    19    1
   19    17    20    1
   20    20    21    1
   21    20    22    1
   22    22    23    1
   23    22    24    1
   24    22    25    1
   25    20    26    1
   26    26    27    1
   27    26    28    1
   28    26    29    1
@<TRIPOS>SUBSTRUCTURE
       1 MOL1            1 RESIDUE      1      MOL     
@<SCITEGIC>MOL_PROPERTY
VM2 Rank
SciTegic.value.IntegerValue
125

@<SCITEGIC>MOL_PROPERTY
Conf_Id
SciTegic.value.IntegerValue
686

@<SCITEGIC>MOL_PROPERTY
Probability
SciTegic.value.DoubleValue
0.01

@<SCITEGIC>MOL_PROPERTY
Sum Probability
SciTegic.value.DoubleValue
99.81

@<SCITEGIC>MOL_PROPERTY
Delta G
SciTegic.value.DoubleValue
4.177

@<SCITEGIC>MOL_PROPERTY
G
SciTegic.value.DoubleValue
37.879

@<SCITEGIC>MOL_PROPERTY
E
SciTegic.value.DoubleValue
-0.108

@<SCITEGIC>MOL_PROPERTY
-TS
SciTegic.value.DoubleValue
37.987

@<SCITEGIC>MOL_PROPERTY
U+W
SciTegic.value.DoubleValue
-24.252

@<SCITEGIC>MOL_PROPERTY
U
SciTegic.value.DoubleValue
28.089

@<SCITEGIC>MOL_PROPERTY
W
SciTegic.value.DoubleValue
-52.342

@<SCITEGIC>MOL_PROPERTY
W(PB)
SciTegic.value.DoubleValue
-54.818

@<SCITEGIC>MOL_PROPERTY
W(SA)
SciTegic.value.DoubleValue
2.476

@<SCITEGIC>MOL_PROPERTY
Valence
SciTegic.value.DoubleValue
5.754

@<SCITEGIC>MOL_PROPERTY
Coulomb
SciTegic.value.DoubleValue
21.249

@<SCITEGIC>MOL_PROPERTY
VdW
SciTegic.value.DoubleValue
1.087

@<SCITEGIC>MOL_PROPERTY
VdW6
SciTegic.value.DoubleValue
-10.617

@<SCITEGIC>MOL_PROPERTY
VdW12
SciTegic.value.DoubleValue
11.704

@<SCITEGIC>MOL_PROPERTY
Bond
SciTegic.value.DoubleValue
0.344

@<SCITEGIC>MOL_PROPERTY
Angle
SciTegic.value.DoubleValue
2.548

@<SCITEGIC>MOL_PROPERTY
Pdih
SciTegic.value.DoubleValue
2.862

@<SCITEGIC>MOL_PROPERTY
Idih
SciTegic.value.DoubleValue
0.000

@<SCITEGIC>MOL_PROPERTY
Tether
SciTegic.value.DoubleValue
0.000

@<TRIPOS>MOLECULE
guest-s15_vm2.mol2 : vm2 ligand conformer 126
          29          28           1
SMALL
USER_CHARGES
 
@<TRIPOS>ATOM
       1    C1      18.125188   19.275744   20.443237 C.3        1 MOL1        -0.2426
       2    H1      17.969758   18.189416   20.415355 H          1 MOL1         0.0959
       3    H2      17.690707   19.662386   21.373190 H          1 MOL1         0.0959
       4    H3      17.563604   19.716528   19.609406 H          1 MOL1         0.0959
       5    C2      19.626264   19.625518   20.328111 C.3        1 MOL1        -0.1410
       6    H4      19.758330   20.714513   20.394229 H          1 MOL1         0.0948
       7    H5      19.981861   19.332903   19.330271 H          1 MOL1         0.0948
       8    C3      20.505615   18.925791   21.392384 C.3        1 MOL1        -0.1435
       9    H6      20.385415   17.836790   21.309308 H          1 MOL1         0.0948
      10    H7      21.559686   19.138647   21.166824 H          1 MOL1         0.0948
      11    C4      20.196265   19.376110   22.840030 C.3        1 MOL1        -0.1435
      12    H8      19.163030   19.106023   23.083806 H          1 MOL1         0.0948
      13    H9      20.278510   20.469589   22.907643 H          1 MOL1         0.0948
      14    C5      21.155172   18.717626   23.860234 C.3        1 MOL1        -0.1435
      15    H10     21.003851   17.629871   23.860193 H          1 MOL1         0.0948
      16    H11     22.188905   18.873035   23.521988 H          1 MOL1         0.0948
      17    C6      21.043767   19.271600   25.308772 C.3        1 MOL1        -0.1500
      18    H12     21.322602   20.333446   25.313030 H          1 MOL1         0.0948
      19    H13     21.806695   18.768497   25.917334 H          1 MOL1         0.0948
      20    C7      19.684251   19.106160   26.034808 C.3        1 MOL1         0.1162
      21    H14     19.859386   19.340836   27.089301 H          1 MOL1         0.0910
      22    C8      19.153276   17.663629   25.968686 C.3        1 MOL1        -0.2491
      23    H15     18.270401   17.549560   26.609478 H          1 MOL1         0.0959
      24    H16     18.865466   17.384078   24.948174 H          1 MOL1         0.0959
      25    H17     19.912916   16.953809   26.318901 H          1 MOL1         0.0959
      26    N1      18.646202   20.093821   25.577738 N.4        1 MOL1        -0.5987
      27    H18     18.971089   21.058086   25.693665 H          1 MOL1         0.3605
      28    H19     17.778334   19.997452   26.112858 H          1 MOL1         0.3605
      29    H20     18.417584   19.961811   24.590426 H          1 MOL1         0.3605
@<TRIPOS>BOND
    1     1     2    1
    2     1     3    1
    3     1     4    1
    4     1     5    1
    5     5     6    1
    6     5     7    1
    7     5     8    1
    8     8     9    1
    9     8    10    1
   10     8    11    1
   11    11    12    1
   12    11    13    1
   13    11    14    1
   14    14    15    1
   15    14    16    1
   16    14    17    1
   17    17    18    1
   18    17    19    1
   19    17    20    1
   20    20    21    1
   21    20    22    1
   22    22    23    1
   23    22    24    1
   24    22    25    1
   25    20    26    1
   26    26    27    1
   27    26    28    1
   28    26    29    1
@<TRIPOS>SUBSTRUCTURE
       1 MOL1            1 RESIDUE      1      MOL     
@<SCITEGIC>MOL_PROPERTY
VM2 Rank
SciTegic.value.IntegerValue
126

@<SCITEGIC>MOL_PROPERTY
Conf_Id
SciTegic.value.IntegerValue
142

@<SCITEGIC>MOL_PROPERTY
Probability
SciTegic.value.DoubleValue
0.01

@<SCITEGIC>MOL_PROPERTY
Sum Probability
SciTegic.value.DoubleValue
99.82

@<SCITEGIC>MOL_PROPERTY
Delta G
SciTegic.value.DoubleValue
4.209

@<SCITEGIC>MOL_PROPERTY
G
SciTegic.value.DoubleValue
37.911

@<SCITEGIC>MOL_PROPERTY
E
SciTegic.value.DoubleValue
-0.172

@<SCITEGIC>MOL_PROPERTY
-TS
SciTegic.value.DoubleValue
38.083

@<SCITEGIC>MOL_PROPERTY
U+W
SciTegic.value.DoubleValue
-24.317

@<SCITEGIC>MOL_PROPERTY
U
SciTegic.value.DoubleValue
28.046

@<SCITEGIC>MOL_PROPERTY
W
SciTegic.value.DoubleValue
-52.362

@<SCITEGIC>MOL_PROPERTY
W(PB)
SciTegic.value.DoubleValue
-54.807

@<SCITEGIC>MOL_PROPERTY
W(SA)
SciTegic.value.DoubleValue
2.445

@<SCITEGIC>MOL_PROPERTY
Valence
SciTegic.value.DoubleValue
5.555

@<SCITEGIC>MOL_PROPERTY
Coulomb
SciTegic.value.DoubleValue
21.509

@<SCITEGIC>MOL_PROPERTY
VdW
SciTegic.value.DoubleValue
0.981

@<SCITEGIC>MOL_PROPERTY
VdW6
SciTegic.value.DoubleValue
-10.796

@<SCITEGIC>MOL_PROPERTY
VdW12
SciTegic.value.DoubleValue
11.778

@<SCITEGIC>MOL_PROPERTY
Bond
SciTegic.value.DoubleValue
0.331

@<SCITEGIC>MOL_PROPERTY
Angle
SciTegic.value.DoubleValue
2.400

@<SCITEGIC>MOL_PROPERTY
Pdih
SciTegic.value.DoubleValue
2.824

@<SCITEGIC>MOL_PROPERTY
Idih
SciTegic.value.DoubleValue
0.000

@<SCITEGIC>MOL_PROPERTY
Tether
SciTegic.value.DoubleValue
0.000

@<TRIPOS>MOLECULE
guest-s15_vm2.mol2 : vm2 ligand conformer 127
          29          28           1
SMALL
USER_CHARGES
 
@<TRIPOS>ATOM
       1    C1      20.225956   21.044754   20.913112 C.3        1 MOL1        -0.2426
       2    H1      20.693188   20.752925   19.963518 H          1 MOL1         0.0959
       3    H2      19.585466   21.915077   20.719968 H          1 MOL1         0.0959
       4    H3      21.020328   21.357309   21.603384 H          1 MOL1         0.0959
       5    C2      19.401875   19.882838   21.506079 C.3        1 MOL1        -0.1410
       6    H4      18.595790   19.613999   20.809249 H          1 MOL1         0.0948
       7    H5      18.918790   20.224425   22.429354 H          1 MOL1         0.0948
       8    C3      20.283957   18.642627   21.782376 C.3        1 MOL1        -0.1435
       9    H6      20.757704   18.332922   20.840642 H          1 MOL1         0.0948
      10    H7      21.110252   18.902141   22.455787 H          1 MOL1         0.0948
      11    C4      19.495777   17.434761   22.347827 C.3        1 MOL1        -0.1435
      12    H8      20.181302   16.580638   22.435592 H          1 MOL1         0.0948
      13    H9      18.739429   17.132452   21.610415 H          1 MOL1         0.0948
      14    C5      18.793491   17.652339   23.715640 C.3        1 MOL1        -0.1435
      15    H10     18.006731   18.411632   23.628504 H          1 MOL1         0.0948
      16    H11     18.266109   16.720016   23.960413 H          1 MOL1         0.0948
      17    C6      19.753489   17.974822   24.893176 C.3        1 MOL1        -0.1500
      18    H12     20.679564   17.398024   24.768668 H          1 MOL1         0.0948
      19    H13     19.301020   17.617015   25.827601 H          1 MOL1         0.0948
      20    C7      20.087448   19.475018   25.058977 C.3        1 MOL1         0.1162
      21    H14     20.436081   19.868288   24.101319 H          1 MOL1         0.0910
      22    C8      21.211831   19.661007   26.089754 C.3        1 MOL1        -0.2491
      23    H15     20.912824   19.284435   27.076026 H          1 MOL1         0.0959
      24    H16     22.117410   19.124983   25.779358 H          1 MOL1         0.0959
      25    H17     21.472499   20.721559   26.193111 H          1 MOL1         0.0959
      26    N1      18.882177   20.287833   25.447060 N.4        1 MOL1        -0.5987
      27    H18     19.111088   21.283008   25.524174 H          1 MOL1         0.3605
      28    H19     18.509132   19.989187   26.352230 H          1 MOL1         0.3605
      29    H20     18.130184   20.196202   24.759344 H          1 MOL1         0.3605
@<TRIPOS>BOND
    1     1     2    1
    2     1     3    1
    3     1     4    1
    4     1     5    1
    5     5     6    1
    6     5     7    1
    7     5     8    1
    8     8     9    1
    9     8    10    1
   10     8    11    1
   11    11    12    1
   12    11    13    1
   13    11    14    1
   14    14    15    1
   15    14    16    1
   16    14    17    1
   17    17    18    1
   18    17    19    1
   19    17    20    1
   20    20    21    1
   21    20    22    1
   22    22    23    1
   23    22    24    1
   24    22    25    1
   25    20    26    1
   26    26    27    1
   27    26    28    1
   28    26    29    1
@<TRIPOS>SUBSTRUCTURE
       1 MOL1            1 RESIDUE      1      MOL     
@<SCITEGIC>MOL_PROPERTY
VM2 Rank
SciTegic.value.IntegerValue
127

@<SCITEGIC>MOL_PROPERTY
Conf_Id
SciTegic.value.IntegerValue
677

@<SCITEGIC>MOL_PROPERTY
Probability
SciTegic.value.DoubleValue
0.01

@<SCITEGIC>MOL_PROPERTY
Sum Probability
SciTegic.value.DoubleValue
99.83

@<SCITEGIC>MOL_PROPERTY
Delta G
SciTegic.value.DoubleValue
4.227

@<SCITEGIC>MOL_PROPERTY
G
SciTegic.value.DoubleValue
37.929

@<SCITEGIC>MOL_PROPERTY
E
SciTegic.value.DoubleValue
-0.490

@<SCITEGIC>MOL_PROPERTY
-TS
SciTegic.value.DoubleValue
38.419

@<SCITEGIC>MOL_PROPERTY
U+W
SciTegic.value.DoubleValue
-24.635

@<SCITEGIC>MOL_PROPERTY
U
SciTegic.value.DoubleValue
28.071

@<SCITEGIC>MOL_PROPERTY
W
SciTegic.value.DoubleValue
-52.705

@<SCITEGIC>MOL_PROPERTY
W(PB)
SciTegic.value.DoubleValue
-55.097

@<SCITEGIC>MOL_PROPERTY
W(SA)
SciTegic.value.DoubleValue
2.392

@<SCITEGIC>MOL_PROPERTY
Valence
SciTegic.value.DoubleValue
6.292

@<SCITEGIC>MOL_PROPERTY
Coulomb
SciTegic.value.DoubleValue
21.484

@<SCITEGIC>MOL_PROPERTY
VdW
SciTegic.value.DoubleValue
0.295

@<SCITEGIC>MOL_PROPERTY
VdW6
SciTegic.value.DoubleValue
-11.563

@<SCITEGIC>MOL_PROPERTY
VdW12
SciTegic.value.DoubleValue
11.859

@<SCITEGIC>MOL_PROPERTY
Bond
SciTegic.value.DoubleValue
0.313

@<SCITEGIC>MOL_PROPERTY
Angle
SciTegic.value.DoubleValue
2.278

@<SCITEGIC>MOL_PROPERTY
Pdih
SciTegic.value.DoubleValue
3.700

@<SCITEGIC>MOL_PROPERTY
Idih
SciTegic.value.DoubleValue
0.000

@<SCITEGIC>MOL_PROPERTY
Tether
SciTegic.value.DoubleValue
0.000

@<TRIPOS>MOLECULE
guest-s15_vm2.mol2 : vm2 ligand conformer 128
          29          28           1
SMALL
USER_CHARGES
 
@<TRIPOS>ATOM
       1    C1      19.378306   20.700250   20.000994 C.3        1 MOL1        -0.2426
       2    H1      19.802189   20.266040   19.086118 H          1 MOL1         0.0959
       3    H2      18.283961   20.657049   19.924957 H          1 MOL1         0.0959
       4    H3      19.672205   21.757200   20.039533 H          1 MOL1         0.0959
       5    C2      19.876755   19.950175   21.254273 C.3        1 MOL1        -0.1410
       6    H4      19.461356   20.437113   22.146164 H          1 MOL1         0.0948
       7    H5      20.970603   20.033458   21.317663 H          1 MOL1         0.0948
       8    C3      19.465825   18.460393   21.228019 C.3        1 MOL1        -0.1435
       9    H6      18.369843   18.384187   21.242476 H          1 MOL1         0.0948
      10    H7      19.789757   18.018122   20.275796 H          1 MOL1         0.0948
      11    C4      20.056066   17.611746   22.383783 C.3        1 MOL1        -0.1435
      12    H8      21.152620   17.593328   22.317419 H          1 MOL1         0.0948
      13    H9      19.733391   16.572942   22.228246 H          1 MOL1         0.0948
      14    C5      19.608370   18.049645   23.802630 C.3        1 MOL1        -0.1435
      15    H10     18.620582   18.525535   23.748936 H          1 MOL1         0.0948
      16    H11     19.478341   17.145086   24.411325 H          1 MOL1         0.0948
      17    C6      20.635894   18.977409   24.508265 C.3        1 MOL1        -0.1500
      18    H12     20.876093   19.832138   23.866431 H          1 MOL1         0.0948
      19    H13     21.579732   18.431843   24.639221 H          1 MOL1         0.0948
      20    C7      20.183443   19.518662   25.884844 C.3        1 MOL1         0.1162
      21    H14     20.987384   20.157490   26.263438 H          1 MOL1         0.0910
      22    C8      19.964526   18.390822   26.908205 C.3        1 MOL1        -0.2491
      23    H15     19.778467   18.808614   27.905211 H          1 MOL1         0.0959
      24    H16     19.105341   17.763437   26.642594 H          1 MOL1         0.0959
      25    H17     20.851640   17.749029   26.976785 H          1 MOL1         0.0959
      26    N1      18.966816   20.396898   25.782987 N.4        1 MOL1        -0.5987
      27    H18     18.714642   20.792360   26.693332 H          1 MOL1         0.3605
      28    H19     18.157946   19.871774   25.441715 H          1 MOL1         0.3605
      29    H20     19.121244   21.179689   25.141280 H          1 MOL1         0.3605
@<TRIPOS>BOND
    1     1     2    1
    2     1     3    1
    3     1     4    1
    4     1     5    1
    5     5     6    1
    6     5     7    1
    7     5     8    1
    8     8     9    1
    9     8    10    1
   10     8    11    1
   11    11    12    1
   12    11    13    1
   13    11    14    1
   14    14    15    1
   15    14    16    1
   16    14    17    1
   17    17    18    1
   18    17    19    1
   19    17    20    1
   20    20    21    1
   21    20    22    1
   22    22    23    1
   23    22    24    1
   24    22    25    1
   25    20    26    1
   26    26    27    1
   27    26    28    1
   28    26    29    1
@<TRIPOS>SUBSTRUCTURE
       1 MOL1            1 RESIDUE      1      MOL     
@<SCITEGIC>MOL_PROPERTY
VM2 Rank
SciTegic.value.IntegerValue
128

@<SCITEGIC>MOL_PROPERTY
Conf_Id
SciTegic.value.IntegerValue
874

@<SCITEGIC>MOL_PROPERTY
Probability
SciTegic.value.DoubleValue
0.01

@<SCITEGIC>MOL_PROPERTY
Sum Probability
SciTegic.value.DoubleValue
99.83

@<SCITEGIC>MOL_PROPERTY
Delta G
SciTegic.value.DoubleValue
4.235

@<SCITEGIC>MOL_PROPERTY
G
SciTegic.value.DoubleValue
37.937

@<SCITEGIC>MOL_PROPERTY
E
SciTegic.value.DoubleValue
-0.008

@<SCITEGIC>MOL_PROPERTY
-TS
SciTegic.value.DoubleValue
37.945

@<SCITEGIC>MOL_PROPERTY
U+W
SciTegic.value.DoubleValue
-24.153

@<SCITEGIC>MOL_PROPERTY
U
SciTegic.value.DoubleValue
28.637

@<SCITEGIC>MOL_PROPERTY
W
SciTegic.value.DoubleValue
-52.789

@<SCITEGIC>MOL_PROPERTY
W(PB)
SciTegic.value.DoubleValue
-55.213

@<SCITEGIC>MOL_PROPERTY
W(SA)
SciTegic.value.DoubleValue
2.424

@<SCITEGIC>MOL_PROPERTY
Valence
SciTegic.value.DoubleValue
6.737

@<SCITEGIC>MOL_PROPERTY
Coulomb
SciTegic.value.DoubleValue
20.767

@<SCITEGIC>MOL_PROPERTY
VdW
SciTegic.value.DoubleValue
1.133

@<SCITEGIC>MOL_PROPERTY
VdW6
SciTegic.value.DoubleValue
-10.382

@<SCITEGIC>MOL_PROPERTY
VdW12
SciTegic.value.DoubleValue
11.515

@<SCITEGIC>MOL_PROPERTY
Bond
SciTegic.value.DoubleValue
0.321

@<SCITEGIC>MOL_PROPERTY
Angle
SciTegic.value.DoubleValue
1.947

@<SCITEGIC>MOL_PROPERTY
Pdih
SciTegic.value.DoubleValue
4.470

@<SCITEGIC>MOL_PROPERTY
Idih
SciTegic.value.DoubleValue
0.000

@<SCITEGIC>MOL_PROPERTY
Tether
SciTegic.value.DoubleValue
0.000

@<TRIPOS>MOLECULE
guest-s15_vm2.mol2 : vm2 ligand conformer 129
          29          28           1
SMALL
USER_CHARGES
 
@<TRIPOS>ATOM
       1    C1      18.650344   20.377881   20.825428 C.3        1 MOL1        -0.2426
       2    H1      18.123467   20.900401   20.016591 H          1 MOL1         0.0959
       3    H2      17.912784   20.122164   21.597083 H          1 MOL1         0.0959
       4    H3      19.374854   21.082322   21.251804 H          1 MOL1         0.0959
       5    C2      19.351298   19.113377   20.283417 C.3        1 MOL1        -0.1410
       6    H4      20.134764   19.407334   19.571075 H          1 MOL1         0.0948
       7    H5      18.621756   18.526719   19.707817 H          1 MOL1         0.0948
       8    C3      19.958893   18.200812   21.379058 C.3        1 MOL1        -0.1435
       9    H6      19.161857   17.820978   22.029649 H          1 MOL1         0.0948
      10    H7      20.373008   17.316017   20.876225 H          1 MOL1         0.0948
      11    C4      21.096011   18.854086   22.211531 C.3        1 MOL1        -0.1435
      12    H8      21.625639   19.588998   21.589931 H          1 MOL1         0.0948
      13    H9      21.842234   18.085322   22.455069 H          1 MOL1         0.0948
      14    C5      20.641926   19.526808   23.533510 C.3        1 MOL1        -0.1435
      15    H10     21.487339   20.103123   23.934169 H          1 MOL1         0.0948
      16    H11     19.844997   20.251279   23.333708 H          1 MOL1         0.0948
      17    C6      20.180359   18.511757   24.611146 C.3        1 MOL1        -0.1500
      18    H12     20.964634   17.754967   24.745159 H          1 MOL1         0.0948
      19    H13     19.283503   17.977332   24.274937 H          1 MOL1         0.0948
      20    C7      19.893964   19.176621   25.974785 C.3        1 MOL1         0.1162
      21    H14     20.791302   19.719699   26.286992 H          1 MOL1         0.0910
      22    C8      19.582343   18.108921   27.035546 C.3        1 MOL1        -0.2491
      23    H15     18.685575   17.535158   26.769958 H          1 MOL1         0.0959
      24    H16     20.418936   17.406719   27.139337 H          1 MOL1         0.0959
      25    H17     19.413830   18.572604   28.015339 H          1 MOL1         0.0959
      26    N1      18.780861   20.185736   25.899581 N.4        1 MOL1        -0.5987
      27    H18     17.901463   19.749526   25.610020 H          1 MOL1         0.3605
      28    H19     18.994278   20.927527   25.227427 H          1 MOL1         0.3605
      29    H20     18.618437   20.631410   26.807146 H          1 MOL1         0.3605
@<TRIPOS>BOND
    1     1     2    1
    2     1     3    1
    3     1     4    1
    4     1     5    1
    5     5     6    1
    6     5     7    1
    7     5     8    1
    8     8     9    1
    9     8    10    1
   10     8    11    1
   11    11    12    1
   12    11    13    1
   13    11    14    1
   14    14    15    1
   15    14    16    1
   16    14    17    1
   17    17    18    1
   18    17    19    1
   19    17    20    1
   20    20    21    1
   21    20    22    1
   22    22    23    1
   23    22    24    1
   24    22    25    1
   25    20    26    1
   26    26    27    1
   27    26    28    1
   28    26    29    1
@<TRIPOS>SUBSTRUCTURE
       1 MOL1            1 RESIDUE      1      MOL     
@<SCITEGIC>MOL_PROPERTY
VM2 Rank
SciTegic.value.IntegerValue
129

@<SCITEGIC>MOL_PROPERTY
Conf_Id
SciTegic.value.IntegerValue
1315

@<SCITEGIC>MOL_PROPERTY
Probability
SciTegic.value.DoubleValue
0.01

@<SCITEGIC>MOL_PROPERTY
Sum Probability
SciTegic.value.DoubleValue
99.84

@<SCITEGIC>MOL_PROPERTY
Delta G
SciTegic.value.DoubleValue
4.273

@<SCITEGIC>MOL_PROPERTY
G
SciTegic.value.DoubleValue
37.975

@<SCITEGIC>MOL_PROPERTY
E
SciTegic.value.DoubleValue
0.246

@<SCITEGIC>MOL_PROPERTY
-TS
SciTegic.value.DoubleValue
37.730

@<SCITEGIC>MOL_PROPERTY
U+W
SciTegic.value.DoubleValue
-23.899

@<SCITEGIC>MOL_PROPERTY
U
SciTegic.value.DoubleValue
28.595

@<SCITEGIC>MOL_PROPERTY
W
SciTegic.value.DoubleValue
-52.493

@<SCITEGIC>MOL_PROPERTY
W(PB)
SciTegic.value.DoubleValue
-54.945

@<SCITEGIC>MOL_PROPERTY
W(SA)
SciTegic.value.DoubleValue
2.452

@<SCITEGIC>MOL_PROPERTY
Valence
SciTegic.value.DoubleValue
6.843

@<SCITEGIC>MOL_PROPERTY
Coulomb
SciTegic.value.DoubleValue
20.557

@<SCITEGIC>MOL_PROPERTY
VdW
SciTegic.value.DoubleValue
1.194

@<SCITEGIC>MOL_PROPERTY
VdW6
SciTegic.value.DoubleValue
-10.198

@<SCITEGIC>MOL_PROPERTY
VdW12
SciTegic.value.DoubleValue
11.392

@<SCITEGIC>MOL_PROPERTY
Bond
SciTegic.value.DoubleValue
0.333

@<SCITEGIC>MOL_PROPERTY
Angle
SciTegic.value.DoubleValue
1.972

@<SCITEGIC>MOL_PROPERTY
Pdih
SciTegic.value.DoubleValue
4.539

@<SCITEGIC>MOL_PROPERTY
Idih
SciTegic.value.DoubleValue
0.000

@<SCITEGIC>MOL_PROPERTY
Tether
SciTegic.value.DoubleValue
0.000

@<TRIPOS>MOLECULE
guest-s15_vm2.mol2 : vm2 ligand conformer 130
          29          28           1
SMALL
USER_CHARGES
 
@<TRIPOS>ATOM
       1    C1      18.479665   18.318571   20.815917 C.3        1 MOL1        -0.2426
       2    H1      18.344257   17.971570   21.847543 H          1 MOL1         0.0959
       3    H2      17.688020   19.044507   20.589537 H          1 MOL1         0.0959
       4    H3      18.340795   17.452895   20.155498 H          1 MOL1         0.0959
       5    C2      19.879055   18.939814   20.606294 C.3        1 MOL1        -0.1410
       6    H4      20.011850   19.158744   19.537629 H          1 MOL1         0.0948
       7    H5      20.653228   18.203505   20.860521 H          1 MOL1         0.0948
       8    C3      20.099685   20.247787   21.408147 C.3        1 MOL1        -0.1435
       9    H6      21.096642   20.644152   21.171290 H          1 MOL1         0.0948
      10    H7      19.384727   21.004690   21.057394 H          1 MOL1         0.0948
      11    C4      19.964486   20.109234   22.946189 C.3        1 MOL1        -0.1435
      12    H8      18.935743   19.821006   23.190284 H          1 MOL1         0.0948
      13    H9      20.129881   21.097108   23.397512 H          1 MOL1         0.0948
      14    C5      20.963219   19.096383   23.559360 C.3        1 MOL1        -0.1435
      15    H10     20.713589   18.078699   23.232882 H          1 MOL1         0.0948
      16    H11     21.963354   19.302657   23.154193 H          1 MOL1         0.0948
      17    C6      21.060232   19.140436   25.110346 C.3        1 MOL1        -0.1500
      18    H12     21.426260   20.127046   25.423188 H          1 MOL1         0.0948
      19    H13     21.840338   18.430821   25.415922 H          1 MOL1         0.0948
      20    C7      19.779317   18.800700   25.914424 C.3        1 MOL1         0.1162
      21    H14     20.086263   18.671747   26.956940 H          1 MOL1         0.0910
      22    C8      19.132409   17.480643   25.460491 C.3        1 MOL1        -0.2491
      23    H15     18.319995   17.197235   26.140751 H          1 MOL1         0.0959
      24    H16     18.711754   17.561933   24.451307 H          1 MOL1         0.0959
      25    H17     19.867897   16.666643   25.462648 H          1 MOL1         0.0959
      26    N1      18.777933   19.922432   25.932832 N.4        1 MOL1        -0.5987
      27    H18     19.188207   20.783757   26.305005 H          1 MOL1         0.3605
      28    H19     17.969512   19.691486   26.517537 H          1 MOL1         0.3605
      29    H20     18.432120   20.126223   24.992942 H          1 MOL1         0.3605
@<TRIPOS>BOND
    1     1     2    1
    2     1     3    1
    3     1     4    1
    4     1     5    1
    5     5     6    1
    6     5     7    1
    7     5     8    1
    8     8     9    1
    9     8    10    1
   10     8    11    1
   11    11    12    1
   12    11    13    1
   13    11    14    1
   14    14    15    1
   15    14    16    1
   16    14    17    1
   17    17    18    1
   18    17    19    1
   19    17    20    1
   20    20    21    1
   21    20    22    1
   22    22    23    1
   23    22    24    1
   24    22    25    1
   25    20    26    1
   26    26    27    1
   27    26    28    1
   28    26    29    1
@<TRIPOS>SUBSTRUCTURE
       1 MOL1            1 RESIDUE      1      MOL     
@<SCITEGIC>MOL_PROPERTY
VM2 Rank
SciTegic.value.IntegerValue
130

@<SCITEGIC>MOL_PROPERTY
Conf_Id
SciTegic.value.IntegerValue
1335

@<SCITEGIC>MOL_PROPERTY
Probability
SciTegic.value.DoubleValue
0.01

@<SCITEGIC>MOL_PROPERTY
Sum Probability
SciTegic.value.DoubleValue
99.85

@<SCITEGIC>MOL_PROPERTY
Delta G
SciTegic.value.DoubleValue
4.333

@<SCITEGIC>MOL_PROPERTY
G
SciTegic.value.DoubleValue
38.035

@<SCITEGIC>MOL_PROPERTY
E
SciTegic.value.DoubleValue
-0.462

@<SCITEGIC>MOL_PROPERTY
-TS
SciTegic.value.DoubleValue
38.497

@<SCITEGIC>MOL_PROPERTY
U+W
SciTegic.value.DoubleValue
-24.607

@<SCITEGIC>MOL_PROPERTY
U
SciTegic.value.DoubleValue
28.222

@<SCITEGIC>MOL_PROPERTY
W
SciTegic.value.DoubleValue
-52.829

@<SCITEGIC>MOL_PROPERTY
W(PB)
SciTegic.value.DoubleValue
-55.186

@<SCITEGIC>MOL_PROPERTY
W(SA)
SciTegic.value.DoubleValue
2.358

@<SCITEGIC>MOL_PROPERTY
Valence
SciTegic.value.DoubleValue
5.955

@<SCITEGIC>MOL_PROPERTY
Coulomb
SciTegic.value.DoubleValue
21.478

@<SCITEGIC>MOL_PROPERTY
VdW
SciTegic.value.DoubleValue
0.789

@<SCITEGIC>MOL_PROPERTY
VdW6
SciTegic.value.DoubleValue
-11.978

@<SCITEGIC>MOL_PROPERTY
VdW12
SciTegic.value.DoubleValue
12.767

@<SCITEGIC>MOL_PROPERTY
Bond
SciTegic.value.DoubleValue
0.372

@<SCITEGIC>MOL_PROPERTY
Angle
SciTegic.value.DoubleValue
2.690

@<SCITEGIC>MOL_PROPERTY
Pdih
SciTegic.value.DoubleValue
2.893

@<SCITEGIC>MOL_PROPERTY
Idih
SciTegic.value.DoubleValue
0.000

@<SCITEGIC>MOL_PROPERTY
Tether
SciTegic.value.DoubleValue
0.000

@<TRIPOS>MOLECULE
guest-s15_vm2.mol2 : vm2 ligand conformer 131
          29          28           1
SMALL
USER_CHARGES
 
@<TRIPOS>ATOM
       1    C1      18.300932   18.345585   21.390790 C.3        1 MOL1        -0.2426
       2    H1      17.835387   17.530681   20.821558 H          1 MOL1         0.0959
       3    H2      18.562775   17.948095   22.376550 H          1 MOL1         0.0959
       4    H3      17.544829   19.129268   21.528528 H          1 MOL1         0.0959
       5    C2      19.534717   18.892499   20.635939 C.3        1 MOL1        -0.1410
       6    H4      19.207154   19.189222   19.629708 H          1 MOL1         0.0948
       7    H5      20.275696   18.094618   20.488539 H          1 MOL1         0.0948
       8    C3      20.193620   20.121039   21.315718 C.3        1 MOL1        -0.1435
       9    H6      20.599302   20.763529   20.522048 H          1 MOL1         0.0948
      10    H7      19.435644   20.733046   21.821850 H          1 MOL1         0.0948
      11    C4      21.367273   19.788551   22.276557 C.3        1 MOL1        -0.1435
      12    H8      21.831831   20.730549   22.598988 H          1 MOL1         0.0948
      13    H9      22.144223   19.252634   21.714218 H          1 MOL1         0.0948
      14    C5      21.004193   18.960670   23.533914 C.3        1 MOL1        -0.1435
      15    H10     20.637916   17.974430   23.226753 H          1 MOL1         0.0948
      16    H11     21.926024   18.774229   24.101934 H          1 MOL1         0.0948
      17    C6      19.983099   19.669604   24.460956 C.3        1 MOL1        -0.1500
      18    H12     19.024718   19.799667   23.943581 H          1 MOL1         0.0948
      19    H13     20.356515   20.678386   24.680716 H          1 MOL1         0.0948
      20    C7      19.745784   18.931583   25.797709 C.3        1 MOL1         0.1162
      21    H14     20.716490   18.763125   26.274088 H          1 MOL1         0.0910
      22    C8      19.059342   17.569274   25.592238 C.3        1 MOL1        -0.2491
      23    H15     18.102321   17.682115   25.067834 H          1 MOL1         0.0959
      24    H16     19.691215   16.887059   25.012086 H          1 MOL1         0.0959
      25    H17     18.862784   17.086807   26.557595 H          1 MOL1         0.0959
      26    N1      18.947039   19.777195   26.750181 N.4        1 MOL1        -0.5987
      27    H18     18.820751   19.307264   27.651234 H          1 MOL1         0.3605
      28    H19     18.015388   19.980999   26.378551 H          1 MOL1         0.3605
      29    H20     19.407503   20.672920   26.935925 H          1 MOL1         0.3605
@<TRIPOS>BOND
    1     1     2    1
    2     1     3    1
    3     1     4    1
    4     1     5    1
    5     5     6    1
    6     5     7    1
    7     5     8    1
    8     8     9    1
    9     8    10    1
   10     8    11    1
   11    11    12    1
   12    11    13    1
   13    11    14    1
   14    14    15    1
   15    14    16    1
   16    14    17    1
   17    17    18    1
   18    17    19    1
   19    17    20    1
   20    20    21    1
   21    20    22    1
   22    22    23    1
   23    22    24    1
   24    22    25    1
   25    20    26    1
   26    26    27    1
   27    26    28    1
   28    26    29    1
@<TRIPOS>SUBSTRUCTURE
       1 MOL1            1 RESIDUE      1      MOL     
@<SCITEGIC>MOL_PROPERTY
VM2 Rank
SciTegic.value.IntegerValue
131

@<SCITEGIC>MOL_PROPERTY
Conf_Id
SciTegic.value.IntegerValue
303

@<SCITEGIC>MOL_PROPERTY
Probability
SciTegic.value.DoubleValue
0.01

@<SCITEGIC>MOL_PROPERTY
Sum Probability
SciTegic.value.DoubleValue
99.86

@<SCITEGIC>MOL_PROPERTY
Delta G
SciTegic.value.DoubleValue
4.336

@<SCITEGIC>MOL_PROPERTY
G
SciTegic.value.DoubleValue
38.038

@<SCITEGIC>MOL_PROPERTY
E
SciTegic.value.DoubleValue
-0.301

@<SCITEGIC>MOL_PROPERTY
-TS
SciTegic.value.DoubleValue
38.339

@<SCITEGIC>MOL_PROPERTY
U+W
SciTegic.value.DoubleValue
-24.446

@<SCITEGIC>MOL_PROPERTY
U
SciTegic.value.DoubleValue
28.291

@<SCITEGIC>MOL_PROPERTY
W
SciTegic.value.DoubleValue
-52.737

@<SCITEGIC>MOL_PROPERTY
W(PB)
SciTegic.value.DoubleValue
-55.104

@<SCITEGIC>MOL_PROPERTY
W(SA)
SciTegic.value.DoubleValue
2.367

@<SCITEGIC>MOL_PROPERTY
Valence
SciTegic.value.DoubleValue
7.253

@<SCITEGIC>MOL_PROPERTY
Coulomb
SciTegic.value.DoubleValue
20.286

@<SCITEGIC>MOL_PROPERTY
VdW
SciTegic.value.DoubleValue
0.753

@<SCITEGIC>MOL_PROPERTY
VdW6
SciTegic.value.DoubleValue
-11.321

@<SCITEGIC>MOL_PROPERTY
VdW12
SciTegic.value.DoubleValue
12.074

@<SCITEGIC>MOL_PROPERTY
Bond
SciTegic.value.DoubleValue
0.335

@<SCITEGIC>MOL_PROPERTY
Angle
SciTegic.value.DoubleValue
2.556

@<SCITEGIC>MOL_PROPERTY
Pdih
SciTegic.value.DoubleValue
4.362

@<SCITEGIC>MOL_PROPERTY
Idih
SciTegic.value.DoubleValue
0.000

@<SCITEGIC>MOL_PROPERTY
Tether
SciTegic.value.DoubleValue
0.000

@<TRIPOS>MOLECULE
guest-s15_vm2.mol2 : vm2 ligand conformer 132
          29          28           1
SMALL
USER_CHARGES
 
@<TRIPOS>ATOM
       1    C1      18.700173   18.753941   20.042735 C.3        1 MOL1        -0.2426
       2    H1      18.370708   18.139323   20.889790 H          1 MOL1         0.0959
       3    H2      17.963002   19.552518   19.888481 H          1 MOL1         0.0959
       4    H3      18.696150   18.115263   19.150040 H          1 MOL1         0.0959
       5    C2      20.110146   19.338643   20.283583 C.3        1 MOL1        -0.1410
       6    H4      20.447377   19.837339   19.364225 H          1 MOL1         0.0948
       7    H5      20.824370   18.523456   20.459131 H          1 MOL1         0.0948
       8    C3      20.164661   20.362941   21.446169 C.3        1 MOL1        -0.1435
       9    H6      21.194342   20.733638   21.543667 H          1 MOL1         0.0948
      10    H7      19.556593   21.236150   21.172432 H          1 MOL1         0.0948
      11    C4      19.683252   19.840360   22.825001 C.3        1 MOL1        -0.1435
      12    H8      18.627384   19.545295   22.764843 H          1 MOL1         0.0948
      13    H9      19.734396   20.682031   23.525503 H          1 MOL1         0.0948
      14    C5      20.531743   18.666139   23.374602 C.3        1 MOL1        -0.1435
      15    H10     20.573060   17.866739   22.624187 H          1 MOL1         0.0948
      16    H11     21.567616   19.001365   23.521926 H          1 MOL1         0.0948
      17    C6      20.000097   18.037510   24.689738 C.3        1 MOL1        -0.1500
      18    H12     20.629367   17.163376   24.904275 H          1 MOL1         0.0948
      19    H13     18.985877   17.644913   24.538609 H          1 MOL1         0.0948
      20    C7      20.024639   18.977657   25.918288 C.3        1 MOL1         0.1162
      21    H14     20.930541   19.589456   25.867485 H          1 MOL1         0.0910
      22    C8      20.068983   18.158991   27.219177 C.3        1 MOL1        -0.2491
      23    H15     20.101074   18.820396   28.093822 H          1 MOL1         0.0959
      24    H16     19.187256   17.512354   27.311180 H          1 MOL1         0.0959
      25    H17     20.963541   17.524544   27.251549 H          1 MOL1         0.0959
      26    N1      18.852305   19.919818   25.954707 N.4        1 MOL1        -0.5987
      27    H18     17.969172   19.409777   26.041159 H          1 MOL1         0.3605
      28    H19     18.799194   20.484857   25.104201 H          1 MOL1         0.3605
      29    H20     18.913758   20.562193   26.749908 H          1 MOL1         0.3605
@<TRIPOS>BOND
    1     1     2    1
    2     1     3    1
    3     1     4    1
    4     1     5    1
    5     5     6    1
    6     5     7    1
    7     5     8    1
    8     8     9    1
    9     8    10    1
   10     8    11    1
   11    11    12    1
   12    11    13    1
   13    11    14    1
   14    14    15    1
   15    14    16    1
   16    14    17    1
   17    17    18    1
   18    17    19    1
   19    17    20    1
   20    20    21    1
   21    20    22    1
   22    22    23    1
   23    22    24    1
   24    22    25    1
   25    20    26    1
   26    26    27    1
   27    26    28    1
   28    26    29    1
@<TRIPOS>SUBSTRUCTURE
       1 MOL1            1 RESIDUE      1      MOL     
@<SCITEGIC>MOL_PROPERTY
VM2 Rank
SciTegic.value.IntegerValue
132

@<SCITEGIC>MOL_PROPERTY
Conf_Id
SciTegic.value.IntegerValue
1011

@<SCITEGIC>MOL_PROPERTY
Probability
SciTegic.value.DoubleValue
0.01

@<SCITEGIC>MOL_PROPERTY
Sum Probability
SciTegic.value.DoubleValue
99.86

@<SCITEGIC>MOL_PROPERTY
Delta G
SciTegic.value.DoubleValue
4.369

@<SCITEGIC>MOL_PROPERTY
G
SciTegic.value.DoubleValue
38.071

@<SCITEGIC>MOL_PROPERTY
E
SciTegic.value.DoubleValue
0.333

@<SCITEGIC>MOL_PROPERTY
-TS
SciTegic.value.DoubleValue
37.738

@<SCITEGIC>MOL_PROPERTY
U+W
SciTegic.value.DoubleValue
-23.811

@<SCITEGIC>MOL_PROPERTY
U
SciTegic.value.DoubleValue
28.430

@<SCITEGIC>MOL_PROPERTY
W
SciTegic.value.DoubleValue
-52.241

@<SCITEGIC>MOL_PROPERTY
W(PB)
SciTegic.value.DoubleValue
-54.683

@<SCITEGIC>MOL_PROPERTY
W(SA)
SciTegic.value.DoubleValue
2.442

@<SCITEGIC>MOL_PROPERTY
Valence
SciTegic.value.DoubleValue
6.077

@<SCITEGIC>MOL_PROPERTY
Coulomb
SciTegic.value.DoubleValue
21.131

@<SCITEGIC>MOL_PROPERTY
VdW
SciTegic.value.DoubleValue
1.221

@<SCITEGIC>MOL_PROPERTY
VdW6
SciTegic.value.DoubleValue
-10.542

@<SCITEGIC>MOL_PROPERTY
VdW12
SciTegic.value.DoubleValue
11.763

@<SCITEGIC>MOL_PROPERTY
Bond
SciTegic.value.DoubleValue
0.334

@<SCITEGIC>MOL_PROPERTY
Angle
SciTegic.value.DoubleValue
2.388

@<SCITEGIC>MOL_PROPERTY
Pdih
SciTegic.value.DoubleValue
3.355

@<SCITEGIC>MOL_PROPERTY
Idih
SciTegic.value.DoubleValue
0.000

@<SCITEGIC>MOL_PROPERTY
Tether
SciTegic.value.DoubleValue
0.000

@<TRIPOS>MOLECULE
guest-s15_vm2.mol2 : vm2 ligand conformer 133
          29          28           1
SMALL
USER_CHARGES
 
@<TRIPOS>ATOM
       1    C1      19.508051   18.171652   19.931730 C.3        1 MOL1        -0.2426
       2    H1      18.782857   18.058975   19.115466 H          1 MOL1         0.0959
       3    H2      20.460350   17.743908   19.592294 H          1 MOL1         0.0959
       4    H3      19.152486   17.572663   20.777359 H          1 MOL1         0.0959
       5    C2      19.675721   19.663207   20.304313 C.3        1 MOL1        -0.1410
       6    H4      18.703873   20.103141   20.567980 H          1 MOL1         0.0948
       7    H5      20.016721   20.199711   19.407793 H          1 MOL1         0.0948
       8    C3      20.701698   19.899962   21.442316 C.3        1 MOL1        -0.1435
       9    H6      21.462869   19.107653   21.438806 H          1 MOL1         0.0948
      10    H7      21.243622   20.830869   21.225282 H          1 MOL1         0.0948
      11    C4      20.085225   20.039347   22.858173 C.3        1 MOL1        -0.1435
      12    H8      19.406798   20.903351   22.876706 H          1 MOL1         0.0948
      13    H9      20.899925   20.274306   23.555248 H          1 MOL1         0.0948
      14    C5      19.328423   18.780953   23.349674 C.3        1 MOL1        -0.1435
      15    H10     18.466040   18.601511   22.695212 H          1 MOL1         0.0948
      16    H11     19.973060   17.896964   23.258965 H          1 MOL1         0.0948
      17    C6      18.799851   18.910888   24.801938 C.3        1 MOL1        -0.1500
      18    H12     18.243255   18.000131   25.059781 H          1 MOL1         0.0948
      19    H13     18.071075   19.731545   24.833289 H          1 MOL1         0.0948
      20    C7      19.880689   19.166533   25.879065 C.3        1 MOL1         0.1162
      21    H14     20.415562   20.085375   25.622078 H          1 MOL1         0.0910
      22    C8      20.900104   18.016571   25.961479 C.3        1 MOL1        -0.2491
      23    H15     20.402785   17.058936   26.159568 H          1 MOL1         0.0959
      24    H16     21.469192   17.922592   25.029236 H          1 MOL1         0.0959
      25    H17     21.623190   18.197783   26.766202 H          1 MOL1         0.0959
      26    N1      19.256238   19.406888   27.225312 N.4        1 MOL1        -0.5987
      27    H18     18.604615   20.196679   27.203162 H          1 MOL1         0.3605
      28    H19     19.964812   19.616268   27.934367 H          1 MOL1         0.3605
      29    H20     18.735003   18.586947   27.547385 H          1 MOL1         0.3605
@<TRIPOS>BOND
    1     1     2    1
    2     1     3    1
    3     1     4    1
    4     1     5    1
    5     5     6    1
    6     5     7    1
    7     5     8    1
    8     8     9    1
    9     8    10    1
   10     8    11    1
   11    11    12    1
   12    11    13    1
   13    11    14    1
   14    14    15    1
   15    14    16    1
   16    14    17    1
   17    17    18    1
   18    17    19    1
   19    17    20    1
   20    20    21    1
   21    20    22    1
   22    22    23    1
   23    22    24    1
   24    22    25    1
   25    20    26    1
   26    26    27    1
   27    26    28    1
   28    26    29    1
@<TRIPOS>SUBSTRUCTURE
       1 MOL1            1 RESIDUE      1      MOL     
@<SCITEGIC>MOL_PROPERTY
VM2 Rank
SciTegic.value.IntegerValue
133

@<SCITEGIC>MOL_PROPERTY
Conf_Id
SciTegic.value.IntegerValue
157

@<SCITEGIC>MOL_PROPERTY
Probability
SciTegic.value.DoubleValue
0.01

@<SCITEGIC>MOL_PROPERTY
Sum Probability
SciTegic.value.DoubleValue
99.87

@<SCITEGIC>MOL_PROPERTY
Delta G
SciTegic.value.DoubleValue
4.395

@<SCITEGIC>MOL_PROPERTY
G
SciTegic.value.DoubleValue
38.096

@<SCITEGIC>MOL_PROPERTY
E
SciTegic.value.DoubleValue
0.103

@<SCITEGIC>MOL_PROPERTY
-TS
SciTegic.value.DoubleValue
37.994

@<SCITEGIC>MOL_PROPERTY
U+W
SciTegic.value.DoubleValue
-24.042

@<SCITEGIC>MOL_PROPERTY
U
SciTegic.value.DoubleValue
28.220

@<SCITEGIC>MOL_PROPERTY
W
SciTegic.value.DoubleValue
-52.262

@<SCITEGIC>MOL_PROPERTY
W(PB)
SciTegic.value.DoubleValue
-54.724

@<SCITEGIC>MOL_PROPERTY
W(SA)
SciTegic.value.DoubleValue
2.462

@<SCITEGIC>MOL_PROPERTY
Valence
SciTegic.value.DoubleValue
7.039

@<SCITEGIC>MOL_PROPERTY
Coulomb
SciTegic.value.DoubleValue
19.984

@<SCITEGIC>MOL_PROPERTY
VdW
SciTegic.value.DoubleValue
1.197

@<SCITEGIC>MOL_PROPERTY
VdW6
SciTegic.value.DoubleValue
-10.566

@<SCITEGIC>MOL_PROPERTY
VdW12
SciTegic.value.DoubleValue
11.763

@<SCITEGIC>MOL_PROPERTY
Bond
SciTegic.value.DoubleValue
0.320

@<SCITEGIC>MOL_PROPERTY
Angle
SciTegic.value.DoubleValue
2.281

@<SCITEGIC>MOL_PROPERTY
Pdih
SciTegic.value.DoubleValue
4.439

@<SCITEGIC>MOL_PROPERTY
Idih
SciTegic.value.DoubleValue
0.000

@<SCITEGIC>MOL_PROPERTY
Tether
SciTegic.value.DoubleValue
0.000

@<TRIPOS>MOLECULE
guest-s15_vm2.mol2 : vm2 ligand conformer 134
          29          28           1
SMALL
USER_CHARGES
 
@<TRIPOS>ATOM
       1    C1      19.022284   20.225641   20.059051 C.3        1 MOL1        -0.2426
       2    H1      19.637264   21.021512   20.495977 H          1 MOL1         0.0959
       3    H2      19.505674   19.888349   19.133013 H          1 MOL1         0.0959
       4    H3      18.054482   20.667732   19.789199 H          1 MOL1         0.0959
       5    C2      18.823165   19.049321   21.042180 C.3        1 MOL1        -0.1410
       6    H4      18.119188   18.335799   20.591719 H          1 MOL1         0.0948
       7    H5      18.340278   19.414201   21.956203 H          1 MOL1         0.0948
       8    C3      20.138796   18.297891   21.373030 C.3        1 MOL1        -0.1435
       9    H6      19.903741   17.352495   21.880882 H          1 MOL1         0.0948
      10    H7      20.614716   18.010611   20.425294 H          1 MOL1         0.0948
      11    C4      21.163888   19.099383   22.221344 C.3        1 MOL1        -0.1435
      12    H8      21.098023   20.173110   22.007004 H          1 MOL1         0.0948
      13    H9      22.172329   18.799607   21.904491 H          1 MOL1         0.0948
      14    C5      21.068842   18.859057   23.750144 C.3        1 MOL1        -0.1435
      15    H10     21.239324   17.793783   23.954811 H          1 MOL1         0.0948
      16    H11     21.891641   19.401815   24.235760 H          1 MOL1         0.0948
      17    C6      19.728498   19.309986   24.381889 C.3        1 MOL1        -0.1500
      18    H12     18.917971   18.653608   24.041398 H          1 MOL1         0.0948
      19    H13     19.493913   20.320901   24.023489 H          1 MOL1         0.0948
      20    C7      19.749033   19.329368   25.927076 C.3        1 MOL1         0.1162
      21    H14     20.584278   19.957745   26.251282 H          1 MOL1         0.0910
      22    C8      19.939153   17.922044   26.520686 C.3        1 MOL1        -0.2491
      23    H15     20.911219   17.499725   26.240730 H          1 MOL1         0.0959
      24    H16     19.903908   17.956961   27.616527 H          1 MOL1         0.0959
      25    H17     19.154358   17.236901   26.176621 H          1 MOL1         0.0959
      26    N1      18.502341   19.963310   26.478600 N.4        1 MOL1        -0.5987
      27    H18     18.529971   20.014161   27.501033 H          1 MOL1         0.3605
      28    H19     17.666792   19.430794   26.221790 H          1 MOL1         0.3605
      29    H20     18.378757   20.918167   26.129573 H          1 MOL1         0.3605
@<TRIPOS>BOND
    1     1     2    1
    2     1     3    1
    3     1     4    1
    4     1     5    1
    5     5     6    1
    6     5     7    1
    7     5     8    1
    8     8     9    1
    9     8    10    1
   10     8    11    1
   11    11    12    1
   12    11    13    1
   13    11    14    1
   14    14    15    1
   15    14    16    1
   16    14    17    1
   17    17    18    1
   18    17    19    1
   19    17    20    1
   20    20    21    1
   21    20    22    1
   22    22    23    1
   23    22    24    1
   24    22    25    1
   25    20    26    1
   26    26    27    1
   27    26    28    1
   28    26    29    1
@<TRIPOS>SUBSTRUCTURE
       1 MOL1            1 RESIDUE      1      MOL     
@<SCITEGIC>MOL_PROPERTY
VM2 Rank
SciTegic.value.IntegerValue
134

@<SCITEGIC>MOL_PROPERTY
Conf_Id
SciTegic.value.IntegerValue
1246

@<SCITEGIC>MOL_PROPERTY
Probability
SciTegic.value.DoubleValue
0.01

@<SCITEGIC>MOL_PROPERTY
Sum Probability
SciTegic.value.DoubleValue
99.88

@<SCITEGIC>MOL_PROPERTY
Delta G
SciTegic.value.DoubleValue
4.415

@<SCITEGIC>MOL_PROPERTY
G
SciTegic.value.DoubleValue
38.117

@<SCITEGIC>MOL_PROPERTY
E
SciTegic.value.DoubleValue
0.313

@<SCITEGIC>MOL_PROPERTY
-TS
SciTegic.value.DoubleValue
37.804

@<SCITEGIC>MOL_PROPERTY
U+W
SciTegic.value.DoubleValue
-23.831

@<SCITEGIC>MOL_PROPERTY
U
SciTegic.value.DoubleValue
28.791

@<SCITEGIC>MOL_PROPERTY
W
SciTegic.value.DoubleValue
-52.622

@<SCITEGIC>MOL_PROPERTY
W(PB)
SciTegic.value.DoubleValue
-55.067

@<SCITEGIC>MOL_PROPERTY
W(SA)
SciTegic.value.DoubleValue
2.445

@<SCITEGIC>MOL_PROPERTY
Valence
SciTegic.value.DoubleValue
7.360

@<SCITEGIC>MOL_PROPERTY
Coulomb
SciTegic.value.DoubleValue
20.134

@<SCITEGIC>MOL_PROPERTY
VdW
SciTegic.value.DoubleValue
1.296

@<SCITEGIC>MOL_PROPERTY
VdW6
SciTegic.value.DoubleValue
-10.373

@<SCITEGIC>MOL_PROPERTY
VdW12
SciTegic.value.DoubleValue
11.669

@<SCITEGIC>MOL_PROPERTY
Bond
SciTegic.value.DoubleValue
0.334

@<SCITEGIC>MOL_PROPERTY
Angle
SciTegic.value.DoubleValue
2.248

@<SCITEGIC>MOL_PROPERTY
Pdih
SciTegic.value.DoubleValue
4.779

@<SCITEGIC>MOL_PROPERTY
Idih
SciTegic.value.DoubleValue
0.000

@<SCITEGIC>MOL_PROPERTY
Tether
SciTegic.value.DoubleValue
0.000

@<TRIPOS>MOLECULE
guest-s15_vm2.mol2 : vm2 ligand conformer 135
          29          28           1
SMALL
USER_CHARGES
 
@<TRIPOS>ATOM
       1    C1      19.110667   20.680516   20.374727 C.3        1 MOL1        -0.2426
       2    H1      18.137482   20.206282   20.192405 H          1 MOL1         0.0959
       3    H2      18.942903   21.758504   20.496460 H          1 MOL1         0.0959
       4    H3      19.734271   20.535379   19.482945 H          1 MOL1         0.0959
       5    C2      19.788595   20.089519   21.628762 C.3        1 MOL1        -0.1410
       6    H4      19.157456   20.294942   22.499989 H          1 MOL1         0.0948
       7    H5      20.743534   20.605404   21.800586 H          1 MOL1         0.0948
       8    C3      20.036931   18.569509   21.477674 C.3        1 MOL1        -0.1435
       9    H6      19.088008   18.042979   21.306611 H          1 MOL1         0.0948
      10    H7      20.636649   18.413562   20.570224 H          1 MOL1         0.0948
      11    C4      20.794580   17.930168   22.670983 C.3        1 MOL1        -0.1435
      12    H8      21.514438   18.642219   23.095937 H          1 MOL1         0.0948
      13    H9      21.403553   17.105709   22.274990 H          1 MOL1         0.0948
      14    C5      19.886769   17.333312   23.780144 C.3        1 MOL1        -0.1435
      15    H10     19.224177   16.580392   23.331694 H          1 MOL1         0.0948
      16    H11     20.516961   16.778720   24.488056 H          1 MOL1         0.0948
      17    C6      19.021023   18.352797   24.564765 C.3        1 MOL1        -0.1500
      18    H12     18.472919   17.818596   25.352083 H          1 MOL1         0.0948
      19    H13     18.252938   18.754266   23.892667 H          1 MOL1         0.0948
      20    C7      19.809133   19.521680   25.201337 C.3        1 MOL1         0.1162
      21    H14     20.368216   20.031548   24.411440 H          1 MOL1         0.0910
      22    C8      20.808425   19.032594   26.264457 C.3        1 MOL1        -0.2491
      23    H15     21.575206   18.386246   25.821756 H          1 MOL1         0.0959
      24    H16     21.326264   19.881367   26.727795 H          1 MOL1         0.0959
      25    H17     20.300266   18.469689   27.057262 H          1 MOL1         0.0959
      26    N1      18.879879   20.545906   25.791150 N.4        1 MOL1        -0.5987
      27    H18     19.396785   21.340769   26.178108 H          1 MOL1         0.3605
      28    H19     18.320400   20.148002   26.550418 H          1 MOL1         0.3605
      29    H20     18.230093   20.915422   25.091373 H          1 MOL1         0.3605
@<TRIPOS>BOND
    1     1     2    1
    2     1     3    1
    3     1     4    1
    4     1     5    1
    5     5     6    1
    6     5     7    1
    7     5     8    1
    8     8     9    1
    9     8    10    1
   10     8    11    1
   11    11    12    1
   12    11    13    1
   13    11    14    1
   14    14    15    1
   15    14    16    1
   16    14    17    1
   17    17    18    1
   18    17    19    1
   19    17    20    1
   20    20    21    1
   21    20    22    1
   22    22    23    1
   23    22    24    1
   24    22    25    1
   25    20    26    1
   26    26    27    1
   27    26    28    1
   28    26    29    1
@<TRIPOS>SUBSTRUCTURE
       1 MOL1            1 RESIDUE      1      MOL     
@<SCITEGIC>MOL_PROPERTY
VM2 Rank
SciTegic.value.IntegerValue
135

@<SCITEGIC>MOL_PROPERTY
Conf_Id
SciTegic.value.IntegerValue
267

@<SCITEGIC>MOL_PROPERTY
Probability
SciTegic.value.DoubleValue
0.01

@<SCITEGIC>MOL_PROPERTY
Sum Probability
SciTegic.value.DoubleValue
99.88

@<SCITEGIC>MOL_PROPERTY
Delta G
SciTegic.value.DoubleValue
4.483

@<SCITEGIC>MOL_PROPERTY
G
SciTegic.value.DoubleValue
38.185

@<SCITEGIC>MOL_PROPERTY
E
SciTegic.value.DoubleValue
-0.111

@<SCITEGIC>MOL_PROPERTY
-TS
SciTegic.value.DoubleValue
38.296

@<SCITEGIC>MOL_PROPERTY
U+W
SciTegic.value.DoubleValue
-24.256

@<SCITEGIC>MOL_PROPERTY
U
SciTegic.value.DoubleValue
28.796

@<SCITEGIC>MOL_PROPERTY
W
SciTegic.value.DoubleValue
-53.052

@<SCITEGIC>MOL_PROPERTY
W(PB)
SciTegic.value.DoubleValue
-55.454

@<SCITEGIC>MOL_PROPERTY
W(SA)
SciTegic.value.DoubleValue
2.402

@<SCITEGIC>MOL_PROPERTY
Valence
SciTegic.value.DoubleValue
6.976

@<SCITEGIC>MOL_PROPERTY
Coulomb
SciTegic.value.DoubleValue
21.302

@<SCITEGIC>MOL_PROPERTY
VdW
SciTegic.value.DoubleValue
0.518

@<SCITEGIC>MOL_PROPERTY
VdW6
SciTegic.value.DoubleValue
-11.513

@<SCITEGIC>MOL_PROPERTY
VdW12
SciTegic.value.DoubleValue
12.032

@<SCITEGIC>MOL_PROPERTY
Bond
SciTegic.value.DoubleValue
0.321

@<SCITEGIC>MOL_PROPERTY
Angle
SciTegic.value.DoubleValue
2.483

@<SCITEGIC>MOL_PROPERTY
Pdih
SciTegic.value.DoubleValue
4.173

@<SCITEGIC>MOL_PROPERTY
Idih
SciTegic.value.DoubleValue
0.000

@<SCITEGIC>MOL_PROPERTY
Tether
SciTegic.value.DoubleValue
0.000

@<TRIPOS>MOLECULE
guest-s15_vm2.mol2 : vm2 ligand conformer 136
          29          28           1
SMALL
USER_CHARGES
 
@<TRIPOS>ATOM
       1    C1      18.053621   19.532030   21.493110 C.3        1 MOL1        -0.2426
       2    H1      17.603206   18.532678   21.550473 H          1 MOL1         0.0959
       3    H2      18.206797   19.895690   22.513837 H          1 MOL1         0.0959
       4    H3      17.325209   20.198120   21.012907 H          1 MOL1         0.0959
       5    C2      19.369926   19.500640   20.682496 C.3        1 MOL1        -0.1410
       6    H4      19.800031   20.509524   20.614986 H          1 MOL1         0.0948
       7    H5      19.121958   19.209136   19.652263 H          1 MOL1         0.0948
       8    C3      20.421698   18.501995   21.231829 C.3        1 MOL1        -0.1435
       9    H6      19.927336   17.628757   21.677147 H          1 MOL1         0.0948
      10    H7      20.986025   18.107587   20.375524 H          1 MOL1         0.0948
      11    C4      21.455821   19.113335   22.215668 C.3        1 MOL1        -0.1435
      12    H8      21.991218   19.926364   21.706334 H          1 MOL1         0.0948
      13    H9      22.216380   18.352602   22.439210 H          1 MOL1         0.0948
      14    C5      20.889313   19.652841   23.552125 C.3        1 MOL1        -0.1435
      15    H10     21.720657   20.079137   24.130503 H          1 MOL1         0.0948
      16    H11     20.206684   20.486746   23.350876 H          1 MOL1         0.0948
      17    C6      20.194832   18.563182   24.408648 C.3        1 MOL1        -0.1500
      18    H12     20.888149   17.721699   24.538932 H          1 MOL1         0.0948
      19    H13     19.317561   18.166126   23.883417 H          1 MOL1         0.0948
      20    C7      19.767995   19.076626   25.800402 C.3        1 MOL1         0.1162
      21    H14     20.651927   19.482404   26.302013 H          1 MOL1         0.0910
      22    C8      19.217947   17.920710   26.650927 C.3        1 MOL1        -0.2491
      23    H15     18.946852   18.271690   27.654276 H          1 MOL1         0.0959
      24    H16     18.325506   17.478583   26.190485 H          1 MOL1         0.0959
      25    H17     19.969783   17.130125   26.766957 H          1 MOL1         0.0959
      26    N1      18.764849   20.194643   25.718796 N.4        1 MOL1        -0.5987
      27    H18     18.514532   20.539498   26.650030 H          1 MOL1         0.3605
      28    H19     17.901443   19.888106   25.262992 H          1 MOL1         0.3605
      29    H20     19.133004   20.988033   25.187177 H          1 MOL1         0.3605
@<TRIPOS>BOND
    1     1     2    1
    2     1     3    1
    3     1     4    1
    4     1     5    1
    5     5     6    1
    6     5     7    1
    7     5     8    1
    8     8     9    1
    9     8    10    1
   10     8    11    1
   11    11    12    1
   12    11    13    1
   13    11    14    1
   14    14    15    1
   15    14    16    1
   16    14    17    1
   17    17    18    1
   18    17    19    1
   19    17    20    1
   20    20    21    1
   21    20    22    1
   22    22    23    1
   23    22    24    1
   24    22    25    1
   25    20    26    1
   26    26    27    1
   27    26    28    1
   28    26    29    1
@<TRIPOS>SUBSTRUCTURE
       1 MOL1            1 RESIDUE      1      MOL     
@<SCITEGIC>MOL_PROPERTY
VM2 Rank
SciTegic.value.IntegerValue
136

@<SCITEGIC>MOL_PROPERTY
Conf_Id
SciTegic.value.IntegerValue
680

@<SCITEGIC>MOL_PROPERTY
Probability
SciTegic.value.DoubleValue
0.01

@<SCITEGIC>MOL_PROPERTY
Sum Probability
SciTegic.value.DoubleValue
99.89

@<SCITEGIC>MOL_PROPERTY
Delta G
SciTegic.value.DoubleValue
4.507

@<SCITEGIC>MOL_PROPERTY
G
SciTegic.value.DoubleValue
38.209

@<SCITEGIC>MOL_PROPERTY
E
SciTegic.value.DoubleValue
-0.043

@<SCITEGIC>MOL_PROPERTY
-TS
SciTegic.value.DoubleValue
38.252

@<SCITEGIC>MOL_PROPERTY
U+W
SciTegic.value.DoubleValue
-24.188

@<SCITEGIC>MOL_PROPERTY
U
SciTegic.value.DoubleValue
28.509

@<SCITEGIC>MOL_PROPERTY
W
SciTegic.value.DoubleValue
-52.697

@<SCITEGIC>MOL_PROPERTY
W(PB)
SciTegic.value.DoubleValue
-55.107

@<SCITEGIC>MOL_PROPERTY
W(SA)
SciTegic.value.DoubleValue
2.410

@<SCITEGIC>MOL_PROPERTY
Valence
SciTegic.value.DoubleValue
6.730

@<SCITEGIC>MOL_PROPERTY
Coulomb
SciTegic.value.DoubleValue
21.117

@<SCITEGIC>MOL_PROPERTY
VdW
SciTegic.value.DoubleValue
0.663

@<SCITEGIC>MOL_PROPERTY
VdW6
SciTegic.value.DoubleValue
-11.041

@<SCITEGIC>MOL_PROPERTY
VdW12
SciTegic.value.DoubleValue
11.704

@<SCITEGIC>MOL_PROPERTY
Bond
SciTegic.value.DoubleValue
0.322

@<SCITEGIC>MOL_PROPERTY
Angle
SciTegic.value.DoubleValue
2.297

@<SCITEGIC>MOL_PROPERTY
Pdih
SciTegic.value.DoubleValue
4.111

@<SCITEGIC>MOL_PROPERTY
Idih
SciTegic.value.DoubleValue
0.000

@<SCITEGIC>MOL_PROPERTY
Tether
SciTegic.value.DoubleValue
0.000

@<TRIPOS>MOLECULE
guest-s15_vm2.mol2 : vm2 ligand conformer 137
          29          28           1
SMALL
USER_CHARGES
 
@<TRIPOS>ATOM
       1    C1      18.341239   19.796561   20.912827 C.3        1 MOL1        -0.2426
       2    H1      18.490204   20.488626   21.750191 H          1 MOL1         0.0959
       3    H2      18.621264   20.316188   19.987370 H          1 MOL1         0.0959
       4    H3      17.269187   19.567566   20.857854 H          1 MOL1         0.0959
       5    C2      19.163832   18.499761   21.088593 C.3        1 MOL1        -0.1410
       6    H4      18.918352   17.816165   20.263963 H          1 MOL1         0.0948
       7    H5      18.862160   17.977312   22.005072 H          1 MOL1         0.0948
       8    C3      20.693413   18.738756   21.087139 C.3        1 MOL1        -0.1435
       9    H6      21.202222   17.766211   21.135328 H          1 MOL1         0.0948
      10    H7      20.977653   19.174363   20.119373 H          1 MOL1         0.0948
      11    C4      21.243994   19.649309   22.217881 C.3        1 MOL1        -0.1435
      12    H8      20.821461   20.659887   22.143305 H          1 MOL1         0.0948
      13    H9      22.320592   19.773242   22.036624 H          1 MOL1         0.0948
      14    C5      21.068572   19.086023   23.653036 C.3        1 MOL1        -0.1435
      15    H10     21.090922   17.989106   23.621842 H          1 MOL1         0.0948
      16    H11     21.938533   19.391705   24.250688 H          1 MOL1         0.0948
      17    C6      19.791743   19.595177   24.372155 C.3        1 MOL1        -0.1500
      18    H12     18.891395   19.259055   23.847029 H          1 MOL1         0.0948
      19    H13     19.783316   20.692162   24.329361 H          1 MOL1         0.0948
      20    C7      19.704850   19.165522   25.854134 C.3        1 MOL1         0.1162
      21    H14     20.630791   19.465963   26.354100 H          1 MOL1         0.0910
      22    C8      19.539510   17.642731   26.005929 C.3        1 MOL1        -0.2491
      23    H15     18.653789   17.284060   25.466889 H          1 MOL1         0.0959
      24    H16     20.415241   17.105940   25.623608 H          1 MOL1         0.0959
      25    H17     19.428194   17.369807   27.062551 H          1 MOL1         0.0959
      26    N1      18.588848   19.882161   26.562306 N.4        1 MOL1        -0.5987
      27    H18     18.701531   20.898816   26.511604 H          1 MOL1         0.3605
      28    H19     18.552373   19.629147   27.553956 H          1 MOL1         0.3605
      29    H20     17.678525   19.652299   26.154699 H          1 MOL1         0.3605
@<TRIPOS>BOND
    1     1     2    1
    2     1     3    1
    3     1     4    1
    4     1     5    1
    5     5     6    1
    6     5     7    1
    7     5     8    1
    8     8     9    1
    9     8    10    1
   10     8    11    1
   11    11    12    1
   12    11    13    1
   13    11    14    1
   14    14    15    1
   15    14    16    1
   16    14    17    1
   17    17    18    1
   18    17    19    1
   19    17    20    1
   20    20    21    1
   21    20    22    1
   22    22    23    1
   23    22    24    1
   24    22    25    1
   25    20    26    1
   26    26    27    1
   27    26    28    1
   28    26    29    1
@<TRIPOS>SUBSTRUCTURE
       1 MOL1            1 RESIDUE      1      MOL     
@<SCITEGIC>MOL_PROPERTY
VM2 Rank
SciTegic.value.IntegerValue
137

@<SCITEGIC>MOL_PROPERTY
Conf_Id
SciTegic.value.IntegerValue
87

@<SCITEGIC>MOL_PROPERTY
Probability
SciTegic.value.DoubleValue
0.01

@<SCITEGIC>MOL_PROPERTY
Sum Probability
SciTegic.value.DoubleValue
99.90

@<SCITEGIC>MOL_PROPERTY
Delta G
SciTegic.value.DoubleValue
4.509

@<SCITEGIC>MOL_PROPERTY
G
SciTegic.value.DoubleValue
38.211

@<SCITEGIC>MOL_PROPERTY
E
SciTegic.value.DoubleValue
0.010

@<SCITEGIC>MOL_PROPERTY
-TS
SciTegic.value.DoubleValue
38.201

@<SCITEGIC>MOL_PROPERTY
U+W
SciTegic.value.DoubleValue
-24.135

@<SCITEGIC>MOL_PROPERTY
U
SciTegic.value.DoubleValue
28.527

@<SCITEGIC>MOL_PROPERTY
W
SciTegic.value.DoubleValue
-52.661

@<SCITEGIC>MOL_PROPERTY
W(PB)
SciTegic.value.DoubleValue
-55.099

@<SCITEGIC>MOL_PROPERTY
W(SA)
SciTegic.value.DoubleValue
2.438

@<SCITEGIC>MOL_PROPERTY
Valence
SciTegic.value.DoubleValue
7.280

@<SCITEGIC>MOL_PROPERTY
Coulomb
SciTegic.value.DoubleValue
20.271

@<SCITEGIC>MOL_PROPERTY
VdW
SciTegic.value.DoubleValue
0.976

@<SCITEGIC>MOL_PROPERTY
VdW6
SciTegic.value.DoubleValue
-10.955

@<SCITEGIC>MOL_PROPERTY
VdW12
SciTegic.value.DoubleValue
11.931

@<SCITEGIC>MOL_PROPERTY
Bond
SciTegic.value.DoubleValue
0.337

@<SCITEGIC>MOL_PROPERTY
Angle
SciTegic.value.DoubleValue
2.514

@<SCITEGIC>MOL_PROPERTY
Pdih
SciTegic.value.DoubleValue
4.429

@<SCITEGIC>MOL_PROPERTY
Idih
SciTegic.value.DoubleValue
0.000

@<SCITEGIC>MOL_PROPERTY
Tether
SciTegic.value.DoubleValue
0.000

@<TRIPOS>MOLECULE
guest-s15_vm2.mol2 : vm2 ligand conformer 138
          29          28           1
SMALL
USER_CHARGES
 
@<TRIPOS>ATOM
       1    C1      19.675845   18.069810   19.962013 C.3        1 MOL1        -0.2426
       2    H1      19.757682   17.321505   20.760033 H          1 MOL1         0.0959
       3    H2      19.120867   17.609792   19.134185 H          1 MOL1         0.0959
       4    H3      20.686562   18.300883   19.601344 H          1 MOL1         0.0959
       5    C2      18.955685   19.346273   20.452412 C.3        1 MOL1        -0.1410
       6    H4      17.959856   19.084093   20.836163 H          1 MOL1         0.0948
       7    H5      18.788866   20.011103   19.593389 H          1 MOL1         0.0948
       8    C3      19.746268   20.121397   21.533913 C.3        1 MOL1        -0.1435
       9    H6      20.729729   20.405741   21.134926 H          1 MOL1         0.0948
      10    H7      19.216307   21.059762   21.748244 H          1 MOL1         0.0948
      11    C4      19.925800   19.329500   22.851096 C.3        1 MOL1        -0.1435
      12    H8      20.527790   18.430205   22.666231 H          1 MOL1         0.0948
      13    H9      18.939761   18.999237   23.198542 H          1 MOL1         0.0948
      14    C5      20.609646   20.184709   23.942951 C.3        1 MOL1        -0.1435
      15    H10     21.512845   20.640439   23.514090 H          1 MOL1         0.0948
      16    H11     19.957038   21.024331   24.217279 H          1 MOL1         0.0948
      17    C6      21.036768   19.402814   25.217729 C.3        1 MOL1        -0.1500
      18    H12     21.551708   20.112969   25.877863 H          1 MOL1         0.0948
      19    H13     21.795405   18.654361   24.953341 H          1 MOL1         0.0948
      20    C7      19.915833   18.731690   26.053213 C.3        1 MOL1         0.1162
      21    H14     20.298894   18.641244   27.074396 H          1 MOL1         0.0910
      22    C8      19.598925   17.300199   25.582064 C.3        1 MOL1        -0.2491
      23    H15     20.509165   16.688354   25.559758 H          1 MOL1         0.0959
      24    H16     18.897080   16.818357   26.273723 H          1 MOL1         0.0959
      25    H17     19.150003   17.276165   24.584816 H          1 MOL1         0.0959
      26    N1      18.671231   19.569606   26.158609 N.4        1 MOL1        -0.5987
      27    H18     18.248428   19.716842   25.238768 H          1 MOL1         0.3605
      28    H19     18.874889   20.491223   26.555866 H          1 MOL1         0.3605
      29    H20     17.969128   19.125204   26.757113 H          1 MOL1         0.3605
@<TRIPOS>BOND
    1     1     2    1
    2     1     3    1
    3     1     4    1
    4     1     5    1
    5     5     6    1
    6     5     7    1
    7     5     8    1
    8     8     9    1
    9     8    10    1
   10     8    11    1
   11    11    12    1
   12    11    13    1
   13    11    14    1
   14    14    15    1
   15    14    16    1
   16    14    17    1
   17    17    18    1
   18    17    19    1
   19    17    20    1
   20    20    21    1
   21    20    22    1
   22    22    23    1
   23    22    24    1
   24    22    25    1
   25    20    26    1
   26    26    27    1
   27    26    28    1
   28    26    29    1
@<TRIPOS>SUBSTRUCTURE
       1 MOL1            1 RESIDUE      1      MOL     
@<SCITEGIC>MOL_PROPERTY
VM2 Rank
SciTegic.value.IntegerValue
138

@<SCITEGIC>MOL_PROPERTY
Conf_Id
SciTegic.value.IntegerValue
1355

@<SCITEGIC>MOL_PROPERTY
Probability
SciTegic.value.DoubleValue
0.01

@<SCITEGIC>MOL_PROPERTY
Sum Probability
SciTegic.value.DoubleValue
99.90

@<SCITEGIC>MOL_PROPERTY
Delta G
SciTegic.value.DoubleValue
4.518

@<SCITEGIC>MOL_PROPERTY
G
SciTegic.value.DoubleValue
38.220

@<SCITEGIC>MOL_PROPERTY
E
SciTegic.value.DoubleValue
0.211

@<SCITEGIC>MOL_PROPERTY
-TS
SciTegic.value.DoubleValue
38.008

@<SCITEGIC>MOL_PROPERTY
U+W
SciTegic.value.DoubleValue
-23.933

@<SCITEGIC>MOL_PROPERTY
U
SciTegic.value.DoubleValue
28.480

@<SCITEGIC>MOL_PROPERTY
W
SciTegic.value.DoubleValue
-52.413

@<SCITEGIC>MOL_PROPERTY
W(PB)
SciTegic.value.DoubleValue
-54.832

@<SCITEGIC>MOL_PROPERTY
W(SA)
SciTegic.value.DoubleValue
2.419

@<SCITEGIC>MOL_PROPERTY
Valence
SciTegic.value.DoubleValue
6.764

@<SCITEGIC>MOL_PROPERTY
Coulomb
SciTegic.value.DoubleValue
20.530

@<SCITEGIC>MOL_PROPERTY
VdW
SciTegic.value.DoubleValue
1.187

@<SCITEGIC>MOL_PROPERTY
VdW6
SciTegic.value.DoubleValue
-10.594

@<SCITEGIC>MOL_PROPERTY
VdW12
SciTegic.value.DoubleValue
11.780

@<SCITEGIC>MOL_PROPERTY
Bond
SciTegic.value.DoubleValue
0.333

@<SCITEGIC>MOL_PROPERTY
Angle
SciTegic.value.DoubleValue
2.588

@<SCITEGIC>MOL_PROPERTY
Pdih
SciTegic.value.DoubleValue
3.843

@<SCITEGIC>MOL_PROPERTY
Idih
SciTegic.value.DoubleValue
0.000

@<SCITEGIC>MOL_PROPERTY
Tether
SciTegic.value.DoubleValue
0.000

@<TRIPOS>MOLECULE
guest-s15_vm2.mol2 : vm2 ligand conformer 139
          29          28           1
SMALL
USER_CHARGES
 
@<TRIPOS>ATOM
       1    C1      20.314503   20.973496   20.877102 C.3        1 MOL1        -0.2426
       2    H1      19.867102   21.668387   21.599698 H          1 MOL1         0.0959
       3    H2      21.311810   21.352171   20.618297 H          1 MOL1         0.0959
       4    H3      19.702302   20.986358   19.965923 H          1 MOL1         0.0959
       5    C2      20.407838   19.549022   21.462762 C.3        1 MOL1        -0.1410
       6    H4      21.059034   19.569161   22.345300 H          1 MOL1         0.0948
       7    H5      20.888427   18.884284   20.731501 H          1 MOL1         0.0948
       8    C3      19.012232   18.992635   21.831104 C.3        1 MOL1        -0.1435
       9    H6      18.509635   19.658956   22.543001 H          1 MOL1         0.0948
      10    H7      18.383847   18.997273   20.929810 H          1 MOL1         0.0948
      11    C4      19.047878   17.547722   22.388674 C.3        1 MOL1        -0.1435
      12    H8      19.453729   16.883086   21.613577 H          1 MOL1         0.0948
      13    H9      18.015229   17.211564   22.555379 H          1 MOL1         0.0948
      14    C5      19.859572   17.334396   23.695380 C.3        1 MOL1        -0.1435
      15    H10     19.810036   16.263203   23.934693 H          1 MOL1         0.0948
      16    H11     20.923090   17.538453   23.524695 H          1 MOL1         0.0948
      17    C6      19.326125   18.116205   24.927465 C.3        1 MOL1        -0.1500
      18    H12     19.597020   17.568546   25.839922 H          1 MOL1         0.0948
      19    H13     18.228690   18.114463   24.895260 H          1 MOL1         0.0948
      20    C7      19.837978   19.570522   25.061062 C.3        1 MOL1         0.1162
      21    H14     19.726721   20.074957   24.098733 H          1 MOL1         0.0910
      22    C8      21.321949   19.622011   25.467677 C.3        1 MOL1        -0.2491
      23    H15     21.657942   20.661405   25.568130 H          1 MOL1         0.0959
      24    H16     21.487267   19.118205   26.428166 H          1 MOL1         0.0959
      25    H17     21.962789   19.144232   24.718504 H          1 MOL1         0.0959
      26    N1      19.007925   20.349991   26.042774 N.4        1 MOL1        -0.5987
      27    H18     18.020638   20.368479   25.771356 H          1 MOL1         0.3605
      28    H19     19.323883   21.321638   26.111593 H          1 MOL1         0.3605
      29    H20     19.061260   19.944653   26.981208 H          1 MOL1         0.3605
@<TRIPOS>BOND
    1     1     2    1
    2     1     3    1
    3     1     4    1
    4     1     5    1
    5     5     6    1
    6     5     7    1
    7     5     8    1
    8     8     9    1
    9     8    10    1
   10     8    11    1
   11    11    12    1
   12    11    13    1
   13    11    14    1
   14    14    15    1
   15    14    16    1
   16    14    17    1
   17    17    18    1
   18    17    19    1
   19    17    20    1
   20    20    21    1
   21    20    22    1
   22    22    23    1
   23    22    24    1
   24    22    25    1
   25    20    26    1
   26    26    27    1
   27    26    28    1
   28    26    29    1
@<TRIPOS>SUBSTRUCTURE
       1 MOL1            1 RESIDUE      1      MOL     
@<SCITEGIC>MOL_PROPERTY
VM2 Rank
SciTegic.value.IntegerValue
139

@<SCITEGIC>MOL_PROPERTY
Conf_Id
SciTegic.value.IntegerValue
1048

@<SCITEGIC>MOL_PROPERTY
Probability
SciTegic.value.DoubleValue
0.01

@<SCITEGIC>MOL_PROPERTY
Sum Probability
SciTegic.value.DoubleValue
99.91

@<SCITEGIC>MOL_PROPERTY
Delta G
SciTegic.value.DoubleValue
4.529

@<SCITEGIC>MOL_PROPERTY
G
SciTegic.value.DoubleValue
38.231

@<SCITEGIC>MOL_PROPERTY
E
SciTegic.value.DoubleValue
-0.345

@<SCITEGIC>MOL_PROPERTY
-TS
SciTegic.value.DoubleValue
38.576

@<SCITEGIC>MOL_PROPERTY
U+W
SciTegic.value.DoubleValue
-24.489

@<SCITEGIC>MOL_PROPERTY
U
SciTegic.value.DoubleValue
28.285

@<SCITEGIC>MOL_PROPERTY
W
SciTegic.value.DoubleValue
-52.774

@<SCITEGIC>MOL_PROPERTY
W(PB)
SciTegic.value.DoubleValue
-55.159

@<SCITEGIC>MOL_PROPERTY
W(SA)
SciTegic.value.DoubleValue
2.385

@<SCITEGIC>MOL_PROPERTY
Valence
SciTegic.value.DoubleValue
6.918

@<SCITEGIC>MOL_PROPERTY
Coulomb
SciTegic.value.DoubleValue
20.924

@<SCITEGIC>MOL_PROPERTY
VdW
SciTegic.value.DoubleValue
0.442

@<SCITEGIC>MOL_PROPERTY
VdW6
SciTegic.value.DoubleValue
-11.731

@<SCITEGIC>MOL_PROPERTY
VdW12
SciTegic.value.DoubleValue
12.173

@<SCITEGIC>MOL_PROPERTY
Bond
SciTegic.value.DoubleValue
0.331

@<SCITEGIC>MOL_PROPERTY
Angle
SciTegic.value.DoubleValue
2.609

@<SCITEGIC>MOL_PROPERTY
Pdih
SciTegic.value.DoubleValue
3.978

@<SCITEGIC>MOL_PROPERTY
Idih
SciTegic.value.DoubleValue
0.000

@<SCITEGIC>MOL_PROPERTY
Tether
SciTegic.value.DoubleValue
0.000

@<TRIPOS>MOLECULE
guest-s15_vm2.mol2 : vm2 ligand conformer 140
          29          28           1
SMALL
USER_CHARGES
 
@<TRIPOS>ATOM
       1    C1      20.349833   19.419423   19.589602 C.3        1 MOL1        -0.2426
       2    H1      19.342477   19.575423   19.182281 H          1 MOL1         0.0959
       3    H2      20.731624   20.384972   19.943609 H          1 MOL1         0.0959
       4    H3      20.997556   19.090834   18.766563 H          1 MOL1         0.0959
       5    C2      20.335133   18.365245   20.719638 C.3        1 MOL1        -0.1410
       6    H4      21.347119   18.252252   21.132863 H          1 MOL1         0.0948
       7    H5      20.068205   17.389924   20.289242 H          1 MOL1         0.0948
       8    C3      19.338960   18.694151   21.857542 C.3        1 MOL1        -0.1435
       9    H6      18.326487   18.790092   21.442037 H          1 MOL1         0.0948
      10    H7      19.309328   17.837258   22.541802 H          1 MOL1         0.0948
      11    C4      19.703289   19.980751   22.641461 C.3        1 MOL1        -0.1435
      12    H8      19.668608   20.838499   21.957303 H          1 MOL1         0.0948
      13    H9      20.738093   19.927949   23.002642 H          1 MOL1         0.0948
      14    C5      18.742141   20.276700   23.819839 C.3        1 MOL1        -0.1435
      15    H10     18.991583   21.262816   24.235476 H          1 MOL1         0.0948
      16    H11     17.720088   20.369197   23.427319 H          1 MOL1         0.0948
      17    C6      18.741778   19.239543   24.974877 C.3        1 MOL1        -0.1500
      18    H12     18.408154   18.256717   24.619088 H          1 MOL1         0.0948
      19    H13     17.974282   19.561158   25.691238 H          1 MOL1         0.0948
      20    C7      20.096476   19.122293   25.715871 C.3        1 MOL1         0.1162
      21    H14     20.668974   20.036007   25.529179 H          1 MOL1         0.0910
      22    C8      20.918215   17.914853   25.228780 C.3        1 MOL1        -0.2491
      23    H15     20.385486   16.973587   25.413001 H          1 MOL1         0.0959
      24    H16     21.133013   17.977721   24.157151 H          1 MOL1         0.0959
      25    H17     21.880615   17.867024   25.752956 H          1 MOL1         0.0959
      26    N1      19.910174   19.043041   27.206390 N.4        1 MOL1        -0.5987
      27    H18     19.408074   19.859655   27.567011 H          1 MOL1         0.3605
      28    H19     20.809814   18.999056   27.693668 H          1 MOL1         0.3605
      29    H20     19.377273   18.210632   27.472815 H          1 MOL1         0.3605
@<TRIPOS>BOND
    1     1     2    1
    2     1     3    1
    3     1     4    1
    4     1     5    1
    5     5     6    1
    6     5     7    1
    7     5     8    1
    8     8     9    1
    9     8    10    1
   10     8    11    1
   11    11    12    1
   12    11    13    1
   13    11    14    1
   14    14    15    1
   15    14    16    1
   16    14    17    1
   17    17    18    1
   18    17    19    1
   19    17    20    1
   20    20    21    1
   21    20    22    1
   22    22    23    1
   23    22    24    1
   24    22    25    1
   25    20    26    1
   26    26    27    1
   27    26    28    1
   28    26    29    1
@<TRIPOS>SUBSTRUCTURE
       1 MOL1            1 RESIDUE      1      MOL     
@<SCITEGIC>MOL_PROPERTY
VM2 Rank
SciTegic.value.IntegerValue
140

@<SCITEGIC>MOL_PROPERTY
Conf_Id
SciTegic.value.IntegerValue
223

@<SCITEGIC>MOL_PROPERTY
Probability
SciTegic.value.DoubleValue
0.00

@<SCITEGIC>MOL_PROPERTY
Sum Probability
SciTegic.value.DoubleValue
99.91

@<SCITEGIC>MOL_PROPERTY
Delta G
SciTegic.value.DoubleValue
4.604

@<SCITEGIC>MOL_PROPERTY
G
SciTegic.value.DoubleValue
38.306

@<SCITEGIC>MOL_PROPERTY
E
SciTegic.value.DoubleValue
0.177

@<SCITEGIC>MOL_PROPERTY
-TS
SciTegic.value.DoubleValue
38.130

@<SCITEGIC>MOL_PROPERTY
U+W
SciTegic.value.DoubleValue
-23.968

@<SCITEGIC>MOL_PROPERTY
U
SciTegic.value.DoubleValue
28.515

@<SCITEGIC>MOL_PROPERTY
W
SciTegic.value.DoubleValue
-52.483

@<SCITEGIC>MOL_PROPERTY
W(PB)
SciTegic.value.DoubleValue
-54.894

@<SCITEGIC>MOL_PROPERTY
W(SA)
SciTegic.value.DoubleValue
2.410

@<SCITEGIC>MOL_PROPERTY
Valence
SciTegic.value.DoubleValue
7.495

@<SCITEGIC>MOL_PROPERTY
Coulomb
SciTegic.value.DoubleValue
19.986

@<SCITEGIC>MOL_PROPERTY
VdW
SciTegic.value.DoubleValue
1.034

@<SCITEGIC>MOL_PROPERTY
VdW6
SciTegic.value.DoubleValue
-10.885

@<SCITEGIC>MOL_PROPERTY
VdW12
SciTegic.value.DoubleValue
11.919

@<SCITEGIC>MOL_PROPERTY
Bond
SciTegic.value.DoubleValue
0.315

@<SCITEGIC>MOL_PROPERTY
Angle
SciTegic.value.DoubleValue
2.267

@<SCITEGIC>MOL_PROPERTY
Pdih
SciTegic.value.DoubleValue
4.913

@<SCITEGIC>MOL_PROPERTY
Idih
SciTegic.value.DoubleValue
0.000

@<SCITEGIC>MOL_PROPERTY
Tether
SciTegic.value.DoubleValue
0.000

@<TRIPOS>MOLECULE
guest-s15_vm2.mol2 : vm2 ligand conformer 141
          29          28           1
SMALL
USER_CHARGES
 
@<TRIPOS>ATOM
       1    C1      19.842968   20.353794   20.118597 C.3        1 MOL1        -0.2426
       2    H1      18.820872   20.712193   19.940279 H          1 MOL1         0.0959
       3    H2      20.266879   20.922979   20.955329 H          1 MOL1         0.0959
       4    H3      20.440392   20.583152   19.226803 H          1 MOL1         0.0959
       5    C2      19.857042   18.835103   20.403684 C.3        1 MOL1        -0.1410
       6    H4      20.885160   18.504656   20.601944 H          1 MOL1         0.0948
       7    H5      19.542501   18.302326   19.495481 H          1 MOL1         0.0948
       8    C3      18.922645   18.416022   21.567613 C.3        1 MOL1        -0.1435
       9    H6      17.884161   18.625890   21.276679 H          1 MOL1         0.0948
      10    H7      18.983609   17.326549   21.695902 H          1 MOL1         0.0948
      11    C4      19.200624   19.101154   22.931029 C.3        1 MOL1        -0.1435
      12    H8      18.441445   18.742452   23.635338 H          1 MOL1         0.0948
      13    H9      19.055717   20.185747   22.841174 H          1 MOL1         0.0948
      14    C5      20.610058   18.801109   23.500313 C.3        1 MOL1        -0.1435
      15    H10     20.727344   17.719017   23.645396 H          1 MOL1         0.0948
      16    H11     21.365317   19.085313   22.756890 H          1 MOL1         0.0948
      17    C6      20.954580   19.557307   24.814631 C.3        1 MOL1        -0.1500
      18    H12     20.951108   20.638142   24.622151 H          1 MOL1         0.0948
      19    H13     21.992586   19.312517   25.075640 H          1 MOL1         0.0948
      20    C7      20.081411   19.265399   26.061753 C.3        1 MOL1         0.1162
      21    H14     20.609211   19.689902   26.921352 H          1 MOL1         0.0910
      22    C8      19.915030   17.758791   26.325511 C.3        1 MOL1        -0.2491
      23    H15     19.418274   17.589993   27.288746 H          1 MOL1         0.0959
      24    H16     19.311757   17.275644   25.547657 H          1 MOL1         0.0959
      25    H17     20.891896   17.260906   26.362704 H          1 MOL1         0.0959
      26    N1      18.751642   19.967321   26.030869 N.4        1 MOL1        -0.5987
      27    H18     18.865423   20.979847   25.928300 H          1 MOL1         0.3605
      28    H19     18.224004   19.805031   26.893423 H          1 MOL1         0.3605
      29    H20     18.176843   19.641161   25.251417 H          1 MOL1         0.3605
@<TRIPOS>BOND
    1     1     2    1
    2     1     3    1
    3     1     4    1
    4     1     5    1
    5     5     6    1
    6     5     7    1
    7     5     8    1
    8     8     9    1
    9     8    10    1
   10     8    11    1
   11    11    12    1
   12    11    13    1
   13    11    14    1
   14    14    15    1
   15    14    16    1
   16    14    17    1
   17    17    18    1
   18    17    19    1
   19    17    20    1
   20    20    21    1
   21    20    22    1
   22    22    23    1
   23    22    24    1
   24    22    25    1
   25    20    26    1
   26    26    27    1
   27    26    28    1
   28    26    29    1
@<TRIPOS>SUBSTRUCTURE
       1 MOL1            1 RESIDUE      1      MOL     
@<SCITEGIC>MOL_PROPERTY
VM2 Rank
SciTegic.value.IntegerValue
141

@<SCITEGIC>MOL_PROPERTY
Conf_Id
SciTegic.value.IntegerValue
895

@<SCITEGIC>MOL_PROPERTY
Probability
SciTegic.value.DoubleValue
0.00

@<SCITEGIC>MOL_PROPERTY
Sum Probability
SciTegic.value.DoubleValue
99.92

@<SCITEGIC>MOL_PROPERTY
Delta G
SciTegic.value.DoubleValue
4.606

@<SCITEGIC>MOL_PROPERTY
G
SciTegic.value.DoubleValue
38.308

@<SCITEGIC>MOL_PROPERTY
E
SciTegic.value.DoubleValue
-0.028

@<SCITEGIC>MOL_PROPERTY
-TS
SciTegic.value.DoubleValue
38.336

@<SCITEGIC>MOL_PROPERTY
U+W
SciTegic.value.DoubleValue
-24.172

@<SCITEGIC>MOL_PROPERTY
U
SciTegic.value.DoubleValue
28.517

@<SCITEGIC>MOL_PROPERTY
W
SciTegic.value.DoubleValue
-52.689

@<SCITEGIC>MOL_PROPERTY
W(PB)
SciTegic.value.DoubleValue
-55.069

@<SCITEGIC>MOL_PROPERTY
W(SA)
SciTegic.value.DoubleValue
2.380

@<SCITEGIC>MOL_PROPERTY
Valence
SciTegic.value.DoubleValue
6.153

@<SCITEGIC>MOL_PROPERTY
Coulomb
SciTegic.value.DoubleValue
21.300

@<SCITEGIC>MOL_PROPERTY
VdW
SciTegic.value.DoubleValue
1.063

@<SCITEGIC>MOL_PROPERTY
VdW6
SciTegic.value.DoubleValue
-11.581

@<SCITEGIC>MOL_PROPERTY
VdW12
SciTegic.value.DoubleValue
12.644

@<SCITEGIC>MOL_PROPERTY
Bond
SciTegic.value.DoubleValue
0.386

@<SCITEGIC>MOL_PROPERTY
Angle
SciTegic.value.DoubleValue
2.989

@<SCITEGIC>MOL_PROPERTY
Pdih
SciTegic.value.DoubleValue
2.778

@<SCITEGIC>MOL_PROPERTY
Idih
SciTegic.value.DoubleValue
0.000

@<SCITEGIC>MOL_PROPERTY
Tether
SciTegic.value.DoubleValue
0.000

@<TRIPOS>MOLECULE
guest-s15_vm2.mol2 : vm2 ligand conformer 142
          29          28           1
SMALL
USER_CHARGES
 
@<TRIPOS>ATOM
       1    C1      19.989713   18.151743   19.697027 C.3        1 MOL1        -0.2426
       2    H1      20.474688   17.266313   20.128345 H          1 MOL1         0.0959
       3    H2      19.344978   17.815883   18.874512 H          1 MOL1         0.0959
       4    H3      20.770175   18.796313   19.272011 H          1 MOL1         0.0959
       5    C2      19.166004   18.906793   20.761490 C.3        1 MOL1        -0.1410
       6    H4      18.374081   18.247886   21.144255 H          1 MOL1         0.0948
       7    H5      18.665388   19.765941   20.293422 H          1 MOL1         0.0948
       8    C3      20.050876   19.391624   21.930748 C.3        1 MOL1        -0.1435
       9    H6      20.555963   18.527298   22.379553 H          1 MOL1         0.0948
      10    H7      20.838492   20.053075   21.544443 H          1 MOL1         0.0948
      11    C4      19.225016   20.144409   23.001361 C.3        1 MOL1        -0.1435
      12    H8      18.427378   19.501298   23.390818 H          1 MOL1         0.0948
      13    H9      18.712940   20.988720   22.519416 H          1 MOL1         0.0948
      14    C5      20.082045   20.701643   24.165177 C.3        1 MOL1        -0.1435
      15    H10     20.790009   21.431266   23.748469 H          1 MOL1         0.0948
      16    H11     19.435344   21.282050   24.836534 H          1 MOL1         0.0948
      17    C6      20.894032   19.664194   24.996111 C.3        1 MOL1        -0.1500
      18    H12     21.483349   20.232020   25.727861 H          1 MOL1         0.0948
      19    H13     21.639004   19.168439   24.361125 H          1 MOL1         0.0948
      20    C7      20.092716   18.601412   25.792873 C.3        1 MOL1         0.1162
      21    H14     20.737723   18.278876   26.616060 H          1 MOL1         0.0910
      22    C8      19.781964   17.338980   24.968510 C.3        1 MOL1        -0.2491
      23    H15     20.697756   16.926597   24.527491 H          1 MOL1         0.0959
      24    H16     19.349265   16.562540   25.611159 H          1 MOL1         0.0959
      25    H17     19.070619   17.531926   24.160220 H          1 MOL1         0.0959
      26    N1      18.853634   19.155202   26.440704 N.4        1 MOL1        -0.5987
      27    H18     18.376633   18.446429   27.005212 H          1 MOL1         0.3605
      28    H19     18.190640   19.490850   25.737670 H          1 MOL1         0.3605
      29    H20     19.074840   19.942079   27.057524 H          1 MOL1         0.3605
@<TRIPOS>BOND
    1     1     2    1
    2     1     3    1
    3     1     4    1
    4     1     5    1
    5     5     6    1
    6     5     7    1
    7     5     8    1
    8     8     9    1
    9     8    10    1
   10     8    11    1
   11    11    12    1
   12    11    13    1
   13    11    14    1
   14    14    15    1
   15    14    16    1
   16    14    17    1
   17    17    18    1
   18    17    19    1
   19    17    20    1
   20    20    21    1
   21    20    22    1
   22    22    23    1
   23    22    24    1
   24    22    25    1
   25    20    26    1
   26    26    27    1
   27    26    28    1
   28    26    29    1
@<TRIPOS>SUBSTRUCTURE
       1 MOL1            1 RESIDUE      1      MOL     
@<SCITEGIC>MOL_PROPERTY
VM2 Rank
SciTegic.value.IntegerValue
142

@<SCITEGIC>MOL_PROPERTY
Conf_Id
SciTegic.value.IntegerValue
295

@<SCITEGIC>MOL_PROPERTY
Probability
SciTegic.value.DoubleValue
0.00

@<SCITEGIC>MOL_PROPERTY
Sum Probability
SciTegic.value.DoubleValue
99.92

@<SCITEGIC>MOL_PROPERTY
Delta G
SciTegic.value.DoubleValue
4.612

@<SCITEGIC>MOL_PROPERTY
G
SciTegic.value.DoubleValue
38.314

@<SCITEGIC>MOL_PROPERTY
E
SciTegic.value.DoubleValue
-0.135

@<SCITEGIC>MOL_PROPERTY
-TS
SciTegic.value.DoubleValue
38.449

@<SCITEGIC>MOL_PROPERTY
U+W
SciTegic.value.DoubleValue
-24.280

@<SCITEGIC>MOL_PROPERTY
U
SciTegic.value.DoubleValue
28.206

@<SCITEGIC>MOL_PROPERTY
W
SciTegic.value.DoubleValue
-52.486

@<SCITEGIC>MOL_PROPERTY
W(PB)
SciTegic.value.DoubleValue
-54.876

@<SCITEGIC>MOL_PROPERTY
W(SA)
SciTegic.value.DoubleValue
2.391

@<SCITEGIC>MOL_PROPERTY
Valence
SciTegic.value.DoubleValue
6.867

@<SCITEGIC>MOL_PROPERTY
Coulomb
SciTegic.value.DoubleValue
20.598

@<SCITEGIC>MOL_PROPERTY
VdW
SciTegic.value.DoubleValue
0.741

@<SCITEGIC>MOL_PROPERTY
VdW6
SciTegic.value.DoubleValue
-11.268

@<SCITEGIC>MOL_PROPERTY
VdW12
SciTegic.value.DoubleValue
12.008

@<SCITEGIC>MOL_PROPERTY
Bond
SciTegic.value.DoubleValue
0.355

@<SCITEGIC>MOL_PROPERTY
Angle
SciTegic.value.DoubleValue
2.996

@<SCITEGIC>MOL_PROPERTY
Pdih
SciTegic.value.DoubleValue
3.516

@<SCITEGIC>MOL_PROPERTY
Idih
SciTegic.value.DoubleValue
0.000

@<SCITEGIC>MOL_PROPERTY
Tether
SciTegic.value.DoubleValue
0.000

@<TRIPOS>MOLECULE
guest-s15_vm2.mol2 : vm2 ligand conformer 143
          29          28           1
SMALL
USER_CHARGES
 
@<TRIPOS>ATOM
       1    C1      18.925584   19.647392   19.813145 C.3        1 MOL1        -0.2426
       2    H1      18.592658   18.701355   19.366923 H          1 MOL1         0.0959
       3    H2      18.219803   19.920549   20.607450 H          1 MOL1         0.0959
       4    H3      18.868153   20.423149   19.038721 H          1 MOL1         0.0959
       5    C2      20.368162   19.528445   20.354300 C.3        1 MOL1        -0.1410
       6    H4      20.672074   20.479148   20.812413 H          1 MOL1         0.0948
       7    H5      21.051214   19.371111   19.507955 H          1 MOL1         0.0948
       8    C3      20.554440   18.364609   21.360818 C.3        1 MOL1        -0.1435
       9    H6      20.356427   17.414791   20.845333 H          1 MOL1         0.0948
      10    H7      21.609162   18.326485   21.666075 H          1 MOL1         0.0948
      11    C4      19.666079   18.436441   22.629468 C.3        1 MOL1        -0.1435
      12    H8      19.869756   17.548205   23.239270 H          1 MOL1         0.0948
      13    H9      18.607437   18.364468   22.347160 H          1 MOL1         0.0948
      14    C5      19.893496   19.719186   23.469939 C.3        1 MOL1        -0.1435
      15    H10     20.965721   19.873725   23.653272 H          1 MOL1         0.0948
      16    H11     19.557397   20.583915   22.882538 H          1 MOL1         0.0948
      17    C6      19.117558   19.717870   24.813660 C.3        1 MOL1        -0.1500
      18    H12     18.219468   19.090942   24.734703 H          1 MOL1         0.0948
      19    H13     18.754418   20.738726   24.991729 H          1 MOL1         0.0948
      20    C7      19.955350   19.300630   26.046301 C.3        1 MOL1         0.1162
      21    H14     20.814521   19.974701   26.117146 H          1 MOL1         0.0910
      22    C8      20.483698   17.859512   25.949888 C.3        1 MOL1        -0.2491
      23    H15     21.008986   17.577674   26.870711 H          1 MOL1         0.0959
      24    H16     19.665577   17.145785   25.792354 H          1 MOL1         0.0959
      25    H17     21.199773   17.757323   25.126224 H          1 MOL1         0.0959
      26    N1      19.171634   19.481915   27.316481 N.4        1 MOL1        -0.5987
      27    H18     18.345064   18.878471   27.334897 H          1 MOL1         0.3605
      28    H19     18.850209   20.448021   27.426816 H          1 MOL1         0.3605
      29    H20     19.735778   19.252694   28.139797 H          1 MOL1         0.3605
@<TRIPOS>BOND
    1     1     2    1
    2     1     3    1
    3     1     4    1
    4     1     5    1
    5     5     6    1
    6     5     7    1
    7     5     8    1
    8     8     9    1
    9     8    10    1
   10     8    11    1
   11    11    12    1
   12    11    13    1
   13    11    14    1
   14    14    15    1
   15    14    16    1
   16    14    17    1
   17    17    18    1
   18    17    19    1
   19    17    20    1
   20    20    21    1
   21    20    22    1
   22    22    23    1
   23    22    24    1
   24    22    25    1
   25    20    26    1
   26    26    27    1
   27    26    28    1
   28    26    29    1
@<TRIPOS>SUBSTRUCTURE
       1 MOL1            1 RESIDUE      1      MOL     
@<SCITEGIC>MOL_PROPERTY
VM2 Rank
SciTegic.value.IntegerValue
143

@<SCITEGIC>MOL_PROPERTY
Conf_Id
SciTegic.value.IntegerValue
1342

@<SCITEGIC>MOL_PROPERTY
Probability
SciTegic.value.DoubleValue
0.00

@<SCITEGIC>MOL_PROPERTY
Sum Probability
SciTegic.value.DoubleValue
99.92

@<SCITEGIC>MOL_PROPERTY
Delta G
SciTegic.value.DoubleValue
4.616

@<SCITEGIC>MOL_PROPERTY
G
SciTegic.value.DoubleValue
38.318

@<SCITEGIC>MOL_PROPERTY
E
SciTegic.value.DoubleValue
0.173

@<SCITEGIC>MOL_PROPERTY
-TS
SciTegic.value.DoubleValue
38.145

@<SCITEGIC>MOL_PROPERTY
U+W
SciTegic.value.DoubleValue
-23.971

@<SCITEGIC>MOL_PROPERTY
U
SciTegic.value.DoubleValue
28.230

@<SCITEGIC>MOL_PROPERTY
W
SciTegic.value.DoubleValue
-52.201

@<SCITEGIC>MOL_PROPERTY
W(PB)
SciTegic.value.DoubleValue
-54.645

@<SCITEGIC>MOL_PROPERTY
W(SA)
SciTegic.value.DoubleValue
2.444

@<SCITEGIC>MOL_PROPERTY
Valence
SciTegic.value.DoubleValue
7.255

@<SCITEGIC>MOL_PROPERTY
Coulomb
SciTegic.value.DoubleValue
19.721

@<SCITEGIC>MOL_PROPERTY
VdW
SciTegic.value.DoubleValue
1.253

@<SCITEGIC>MOL_PROPERTY
VdW6
SciTegic.value.DoubleValue
-10.650

@<SCITEGIC>MOL_PROPERTY
VdW12
SciTegic.value.DoubleValue
11.903

@<SCITEGIC>MOL_PROPERTY
Bond
SciTegic.value.DoubleValue
0.331

@<SCITEGIC>MOL_PROPERTY
Angle
SciTegic.value.DoubleValue
2.253

@<SCITEGIC>MOL_PROPERTY
Pdih
SciTegic.value.DoubleValue
4.671

@<SCITEGIC>MOL_PROPERTY
Idih
SciTegic.value.DoubleValue
0.000

@<SCITEGIC>MOL_PROPERTY
Tether
SciTegic.value.DoubleValue
0.000

@<TRIPOS>MOLECULE
guest-s15_vm2.mol2 : vm2 ligand conformer 144
          29          28           1
SMALL
USER_CHARGES
 
@<TRIPOS>ATOM
       1    C1      19.352719   18.265841   19.935603 C.3        1 MOL1        -0.2426
       2    H1      20.267515   17.735564   19.640824 H          1 MOL1         0.0959
       3    H2      18.892316   17.721474   20.769542 H          1 MOL1         0.0959
       4    H3      18.654036   18.227091   19.089923 H          1 MOL1         0.0959
       5    C2      19.659215   19.731426   20.317816 C.3        1 MOL1        -0.1410
       6    H4      18.734394   20.234386   20.629956 H          1 MOL1         0.0948
       7    H5      20.002124   20.266115   19.421069 H          1 MOL1         0.0948
       8    C3      20.743447   19.869017   21.417152 C.3        1 MOL1        -0.1435
       9    H6      21.693952   19.482145   21.024728 H          1 MOL1         0.0948
      10    H7      20.913027   20.936264   21.615487 H          1 MOL1         0.0948
      11    C4      20.432567   19.150390   22.755789 C.3        1 MOL1        -0.1435
      12    H8      21.292887   19.299699   23.420753 H          1 MOL1         0.0948
      13    H9      20.356454   18.067646   22.590586 H          1 MOL1         0.0948
      14    C5      19.150530   19.667732   23.454393 C.3        1 MOL1        -0.1435
      15    H10     19.246837   20.745696   23.643858 H          1 MOL1         0.0948
      16    H11     18.292131   19.547640   22.781141 H          1 MOL1         0.0948
      17    C6      18.818370   18.940250   24.781864 C.3        1 MOL1        -0.1500
      18    H12     18.633974   17.874711   24.590074 H          1 MOL1         0.0948
      19    H13     17.864719   19.343173   25.147811 H          1 MOL1         0.0948
      20    C7      19.898423   19.114472   25.877025 C.3        1 MOL1         0.1162
      21    H14     20.529196   19.965396   25.602101 H          1 MOL1         0.0910
      22    C8      20.785205   17.862229   26.002017 C.3        1 MOL1        -0.2491
      23    H15     21.585375   18.027030   26.734036 H          1 MOL1         0.0959
      24    H16     20.199003   16.994663   26.330004 H          1 MOL1         0.0959
      25    H17     21.257414   17.607341   25.046673 H          1 MOL1         0.0959
      26    N1      19.295525   19.454644   27.212343 N.4        1 MOL1        -0.5987
      27    H18     18.737817   20.312463   27.165803 H          1 MOL1         0.3605
      28    H19     20.018531   19.599528   27.923006 H          1 MOL1         0.3605
      29    H20     18.682966   18.706192   27.547736 H          1 MOL1         0.3605
@<TRIPOS>BOND
    1     1     2    1
    2     1     3    1
    3     1     4    1
    4     1     5    1
    5     5     6    1
    6     5     7    1
    7     5     8    1
    8     8     9    1
    9     8    10    1
   10     8    11    1
   11    11    12    1
   12    11    13    1
   13    11    14    1
   14    14    15    1
   15    14    16    1
   16    14    17    1
   17    17    18    1
   18    17    19    1
   19    17    20    1
   20    20    21    1
   21    20    22    1
   22    22    23    1
   23    22    24    1
   24    22    25    1
   25    20    26    1
   26    26    27    1
   27    26    28    1
   28    26    29    1
@<TRIPOS>SUBSTRUCTURE
       1 MOL1            1 RESIDUE      1      MOL     
@<SCITEGIC>MOL_PROPERTY
VM2 Rank
SciTegic.value.IntegerValue
144

@<SCITEGIC>MOL_PROPERTY
Conf_Id
SciTegic.value.IntegerValue
927

@<SCITEGIC>MOL_PROPERTY
Probability
SciTegic.value.DoubleValue
0.00

@<SCITEGIC>MOL_PROPERTY
Sum Probability
SciTegic.value.DoubleValue
99.93

@<SCITEGIC>MOL_PROPERTY
Delta G
SciTegic.value.DoubleValue
4.617

@<SCITEGIC>MOL_PROPERTY
G
SciTegic.value.DoubleValue
38.319

@<SCITEGIC>MOL_PROPERTY
E
SciTegic.value.DoubleValue
0.424

@<SCITEGIC>MOL_PROPERTY
-TS
SciTegic.value.DoubleValue
37.895

@<SCITEGIC>MOL_PROPERTY
U+W
SciTegic.value.DoubleValue
-23.720

@<SCITEGIC>MOL_PROPERTY
U
SciTegic.value.DoubleValue
28.495

@<SCITEGIC>MOL_PROPERTY
W
SciTegic.value.DoubleValue
-52.215

@<SCITEGIC>MOL_PROPERTY
W(PB)
SciTegic.value.DoubleValue
-54.650

@<SCITEGIC>MOL_PROPERTY
W(SA)
SciTegic.value.DoubleValue
2.435

@<SCITEGIC>MOL_PROPERTY
Valence
SciTegic.value.DoubleValue
7.352

@<SCITEGIC>MOL_PROPERTY
Coulomb
SciTegic.value.DoubleValue
19.852

@<SCITEGIC>MOL_PROPERTY
VdW
SciTegic.value.DoubleValue
1.291

@<SCITEGIC>MOL_PROPERTY
VdW6
SciTegic.value.DoubleValue
-10.552

@<SCITEGIC>MOL_PROPERTY
VdW12
SciTegic.value.DoubleValue
11.843

@<SCITEGIC>MOL_PROPERTY
Bond
SciTegic.value.DoubleValue
0.310

@<SCITEGIC>MOL_PROPERTY
Angle
SciTegic.value.DoubleValue
2.054

@<SCITEGIC>MOL_PROPERTY
Pdih
SciTegic.value.DoubleValue
4.988

@<SCITEGIC>MOL_PROPERTY
Idih
SciTegic.value.DoubleValue
0.000

@<SCITEGIC>MOL_PROPERTY
Tether
SciTegic.value.DoubleValue
0.000

@<TRIPOS>MOLECULE
guest-s15_vm2.mol2 : vm2 ligand conformer 145
          29          28           1
SMALL
USER_CHARGES
 
@<TRIPOS>ATOM
       1    C1      18.195375   18.916497   20.405715 C.3        1 MOL1        -0.2426
       2    H1      17.889218   18.321269   21.274820 H          1 MOL1         0.0959
       3    H2      17.753683   19.917030   20.499809 H          1 MOL1         0.0959
       4    H3      17.765362   18.442343   19.513976 H          1 MOL1         0.0959
       5    C2      19.734174   18.997279   20.285627 C.3        1 MOL1        -0.1410
       6    H4      19.989558   19.489961   19.337053 H          1 MOL1         0.0948
       7    H5      20.154040   17.983315   20.228123 H          1 MOL1         0.0948
       8    C3      20.402868   19.775641   21.444337 C.3        1 MOL1        -0.1435
       9    H6      21.473894   19.878076   21.221507 H          1 MOL1         0.0948
      10    H7      19.996327   20.795635   21.483855 H          1 MOL1         0.0948
      11    C4      20.234864   19.092575   22.822643 C.3        1 MOL1        -0.1435
      12    H8      20.603886   18.059272   22.766787 H          1 MOL1         0.0948
      13    H9      19.168986   19.047468   23.070656 H          1 MOL1         0.0948
      14    C5      20.991060   19.855121   23.935348 C.3        1 MOL1        -0.1435
      15    H10     22.024081   20.026324   23.602449 H          1 MOL1         0.0948
      16    H11     20.552258   20.853946   24.061585 H          1 MOL1         0.0948
      17    C6      21.054299   19.123114   25.306150 C.3        1 MOL1        -0.1500
      18    H12     21.658981   19.744760   25.979336 H          1 MOL1         0.0948
      19    H13     21.616807   18.186435   25.197379 H          1 MOL1         0.0948
      20    C7      19.711119   18.840323   26.028004 C.3        1 MOL1         0.1162
      21    H14     19.940014   18.765237   27.095571 H          1 MOL1         0.0910
      22    C8      19.091376   17.489867   25.623144 C.3        1 MOL1        -0.2491
      23    H15     18.213769   17.272184   26.244091 H          1 MOL1         0.0959
      24    H16     18.770122   17.471563   24.577654 H          1 MOL1         0.0959
      25    H17     19.808798   16.673479   25.772176 H          1 MOL1         0.0959
      26    N1      18.720865   19.965583   25.903032 N.4        1 MOL1        -0.5987
      27    H18     17.864872   19.772543   26.430941 H          1 MOL1         0.3605
      28    H19     18.457382   20.116531   24.926121 H          1 MOL1         0.3605
      29    H20     19.108931   20.844471   26.257516 H          1 MOL1         0.3605
@<TRIPOS>BOND
    1     1     2    1
    2     1     3    1
    3     1     4    1
    4     1     5    1
    5     5     6    1
    6     5     7    1
    7     5     8    1
    8     8     9    1
    9     8    10    1
   10     8    11    1
   11    11    12    1
   12    11    13    1
   13    11    14    1
   14    14    15    1
   15    14    16    1
   16    14    17    1
   17    17    18    1
   18    17    19    1
   19    17    20    1
   20    20    21    1
   21    20    22    1
   22    22    23    1
   23    22    24    1
   24    22    25    1
   25    20    26    1
   26    26    27    1
   27    26    28    1
   28    26    29    1
@<TRIPOS>SUBSTRUCTURE
       1 MOL1            1 RESIDUE      1      MOL     
@<SCITEGIC>MOL_PROPERTY
VM2 Rank
SciTegic.value.IntegerValue
145

@<SCITEGIC>MOL_PROPERTY
Conf_Id
SciTegic.value.IntegerValue
1202

@<SCITEGIC>MOL_PROPERTY
Probability
SciTegic.value.DoubleValue
0.00

@<SCITEGIC>MOL_PROPERTY
Sum Probability
SciTegic.value.DoubleValue
99.93

@<SCITEGIC>MOL_PROPERTY
Delta G
SciTegic.value.DoubleValue
4.646

@<SCITEGIC>MOL_PROPERTY
G
SciTegic.value.DoubleValue
38.348

@<SCITEGIC>MOL_PROPERTY
E
SciTegic.value.DoubleValue
0.338

@<SCITEGIC>MOL_PROPERTY
-TS
SciTegic.value.DoubleValue
38.010

@<SCITEGIC>MOL_PROPERTY
U+W
SciTegic.value.DoubleValue
-23.807

@<SCITEGIC>MOL_PROPERTY
U
SciTegic.value.DoubleValue
28.617

@<SCITEGIC>MOL_PROPERTY
W
SciTegic.value.DoubleValue
-52.424

@<SCITEGIC>MOL_PROPERTY
W(PB)
SciTegic.value.DoubleValue
-54.854

@<SCITEGIC>MOL_PROPERTY
W(SA)
SciTegic.value.DoubleValue
2.430

@<SCITEGIC>MOL_PROPERTY
Valence
SciTegic.value.DoubleValue
6.761

@<SCITEGIC>MOL_PROPERTY
Coulomb
SciTegic.value.DoubleValue
20.675

@<SCITEGIC>MOL_PROPERTY
VdW
SciTegic.value.DoubleValue
1.180

@<SCITEGIC>MOL_PROPERTY
VdW6
SciTegic.value.DoubleValue
-10.633

@<SCITEGIC>MOL_PROPERTY
VdW12
SciTegic.value.DoubleValue
11.814

@<SCITEGIC>MOL_PROPERTY
Bond
SciTegic.value.DoubleValue
0.336

@<SCITEGIC>MOL_PROPERTY
Angle
SciTegic.value.DoubleValue
2.591

@<SCITEGIC>MOL_PROPERTY
Pdih
SciTegic.value.DoubleValue
3.833

@<SCITEGIC>MOL_PROPERTY
Idih
SciTegic.value.DoubleValue
0.000

@<SCITEGIC>MOL_PROPERTY
Tether
SciTegic.value.DoubleValue
0.000

@<TRIPOS>MOLECULE
guest-s15_vm2.mol2 : vm2 ligand conformer 146
          29          28           1
SMALL
USER_CHARGES
 
@<TRIPOS>ATOM
       1    C1      18.734675   19.800795   19.720182 C.3        1 MOL1        -0.2426
       2    H1      17.750067   19.935216   20.186748 H          1 MOL1         0.0959
       3    H2      18.930851   20.676728   19.088312 H          1 MOL1         0.0959
       4    H3      18.686758   18.918990   19.068013 H          1 MOL1         0.0959
       5    C2      19.837019   19.641947   20.788561 C.3        1 MOL1        -0.1410
       6    H4      19.880219   20.557308   21.393781 H          1 MOL1         0.0948
       7    H5      20.812788   19.538713   20.293774 H          1 MOL1         0.0948
       8    C3      19.579155   18.416243   21.695947 C.3        1 MOL1        -0.1435
       9    H6      18.626202   18.540936   22.225753 H          1 MOL1         0.0948
      10    H7      19.452702   17.526527   21.063797 H          1 MOL1         0.0948
      11    C4      20.721790   18.132795   22.706426 C.3        1 MOL1        -0.1435
      12    H8      21.619346   17.845659   22.141573 H          1 MOL1         0.0948
      13    H9      20.454064   17.247439   23.293781 H          1 MOL1         0.0948
      14    C5      21.100998   19.309285   23.650302 C.3        1 MOL1        -0.1435
      15    H10     21.944719   19.006924   24.285773 H          1 MOL1         0.0948
      16    H11     21.490479   20.131643   23.035842 H          1 MOL1         0.0948
      17    C6      19.956761   19.863044   24.545434 C.3        1 MOL1        -0.1500
      18    H12     18.990720   19.807834   24.031453 H          1 MOL1         0.0948
      19    H13     20.146945   20.934564   24.690998 H          1 MOL1         0.0948
      20    C7      19.848085   19.225627   25.951700 C.3        1 MOL1         0.1162
      21    H14     20.807015   19.358474   26.461933 H          1 MOL1         0.0910
      22    C8      19.532701   17.721611   25.908898 C.3        1 MOL1        -0.2491
      23    H15     20.386883   17.154691   25.522950 H          1 MOL1         0.0959
      24    H16     19.325880   17.339800   26.916248 H          1 MOL1         0.0959
      25    H17     18.658484   17.514886   25.279077 H          1 MOL1         0.0959
      26    N1      18.824817   19.944653   26.786550 N.4        1 MOL1        -0.5987
      27    H18     18.781060   19.562114   27.735439 H          1 MOL1         0.3605
      28    H19     17.888453   19.863967   26.381107 H          1 MOL1         0.3605
      29    H20     19.039752   20.942475   26.870102 H          1 MOL1         0.3605
@<TRIPOS>BOND
    1     1     2    1
    2     1     3    1
    3     1     4    1
    4     1     5    1
    5     5     6    1
    6     5     7    1
    7     5     8    1
    8     8     9    1
    9     8    10    1
   10     8    11    1
   11    11    12    1
   12    11    13    1
   13    11    14    1
   14    14    15    1
   15    14    16    1
   16    14    17    1
   17    17    18    1
   18    17    19    1
   19    17    20    1
   20    20    21    1
   21    20    22    1
   22    22    23    1
   23    22    24    1
   24    22    25    1
   25    20    26    1
   26    26    27    1
   27    26    28    1
   28    26    29    1
@<TRIPOS>SUBSTRUCTURE
       1 MOL1            1 RESIDUE      1      MOL     
@<SCITEGIC>MOL_PROPERTY
VM2 Rank
SciTegic.value.IntegerValue
146

@<SCITEGIC>MOL_PROPERTY
Conf_Id
SciTegic.value.IntegerValue
645

@<SCITEGIC>MOL_PROPERTY
Probability
SciTegic.value.DoubleValue
0.00

@<SCITEGIC>MOL_PROPERTY
Sum Probability
SciTegic.value.DoubleValue
99.94

@<SCITEGIC>MOL_PROPERTY
Delta G
SciTegic.value.DoubleValue
4.653

@<SCITEGIC>MOL_PROPERTY
G
SciTegic.value.DoubleValue
38.355

@<SCITEGIC>MOL_PROPERTY
E
SciTegic.value.DoubleValue
0.623

@<SCITEGIC>MOL_PROPERTY
-TS
SciTegic.value.DoubleValue
37.732

@<SCITEGIC>MOL_PROPERTY
U+W
SciTegic.value.DoubleValue
-23.522

@<SCITEGIC>MOL_PROPERTY
U
SciTegic.value.DoubleValue
28.954

@<SCITEGIC>MOL_PROPERTY
W
SciTegic.value.DoubleValue
-52.475

@<SCITEGIC>MOL_PROPERTY
W(PB)
SciTegic.value.DoubleValue
-54.903

@<SCITEGIC>MOL_PROPERTY
W(SA)
SciTegic.value.DoubleValue
2.427

@<SCITEGIC>MOL_PROPERTY
Valence
SciTegic.value.DoubleValue
7.580

@<SCITEGIC>MOL_PROPERTY
Coulomb
SciTegic.value.DoubleValue
20.140

@<SCITEGIC>MOL_PROPERTY
VdW
SciTegic.value.DoubleValue
1.233

@<SCITEGIC>MOL_PROPERTY
VdW6
SciTegic.value.DoubleValue
-10.755

@<SCITEGIC>MOL_PROPERTY
VdW12
SciTegic.value.DoubleValue
11.988

@<SCITEGIC>MOL_PROPERTY
Bond
SciTegic.value.DoubleValue
0.385

@<SCITEGIC>MOL_PROPERTY
Angle
SciTegic.value.DoubleValue
2.936

@<SCITEGIC>MOL_PROPERTY
Pdih
SciTegic.value.DoubleValue
4.259

@<SCITEGIC>MOL_PROPERTY
Idih
SciTegic.value.DoubleValue
0.000

@<SCITEGIC>MOL_PROPERTY
Tether
SciTegic.value.DoubleValue
0.000

@<TRIPOS>MOLECULE
guest-s15_vm2.mol2 : vm2 ligand conformer 147
          29          28           1
SMALL
USER_CHARGES
 
@<TRIPOS>ATOM
       1    C1      18.157120   18.876068   20.969970 C.3        1 MOL1        -0.2426
       2    H1      18.268805   17.924574   20.434135 H          1 MOL1         0.0959
       3    H2      17.992188   18.656157   22.031567 H          1 MOL1         0.0959
       4    H3      17.253993   19.371559   20.590921 H          1 MOL1         0.0959
       5    C2      19.395402   19.777268   20.764774 C.3        1 MOL1        -0.1410
       6    H4      19.270925   20.712372   21.326817 H          1 MOL1         0.0948
       7    H5      19.448673   20.068554   19.706508 H          1 MOL1         0.0948
       8    C3      20.729437   19.090685   21.153841 C.3        1 MOL1        -0.1435
       9    H6      20.889604   18.227604   20.493135 H          1 MOL1         0.0948
      10    H7      21.556866   19.783587   20.948065 H          1 MOL1         0.0948
      11    C4      20.825518   18.613574   22.626032 C.3        1 MOL1        -0.1435
      12    H8      21.803325   18.132564   22.765127 H          1 MOL1         0.0948
      13    H9      20.080329   17.831229   22.806386 H          1 MOL1         0.0948
      14    C5      20.679575   19.762912   23.656714 C.3        1 MOL1        -0.1435
      15    H10     21.410590   20.541770   23.399581 H          1 MOL1         0.0948
      16    H11     19.693300   20.234630   23.571452 H          1 MOL1         0.0948
      17    C6      20.940582   19.321304   25.124260 C.3        1 MOL1        -0.1500
      18    H12     21.413288   20.158578   25.654357 H          1 MOL1         0.0948
      19    H13     21.682400   18.512256   25.145587 H          1 MOL1         0.0948
      20    C7      19.696921   18.899671   25.945820 C.3        1 MOL1         0.1162
      21    H14     20.052326   18.622903   26.943216 H          1 MOL1         0.0910
      22    C8      18.975160   17.675994   25.359775 C.3        1 MOL1        -0.2491
      23    H15     18.219090   17.305574   26.062800 H          1 MOL1         0.0959
      24    H16     18.464155   17.922512   24.422278 H          1 MOL1         0.0959
      25    H17     19.681765   16.858680   25.169646 H          1 MOL1         0.0959
      26    N1      18.736286   20.038524   26.152814 N.4        1 MOL1        -0.5987
      27    H18     17.953972   19.762752   26.753302 H          1 MOL1         0.3605
      28    H19     18.343845   20.360056   25.264635 H          1 MOL1         0.3605
      29    H20     19.194473   20.839937   26.596117 H          1 MOL1         0.3605
@<TRIPOS>BOND
    1     1     2    1
    2     1     3    1
    3     1     4    1
    4     1     5    1
    5     5     6    1
    6     5     7    1
    7     5     8    1
    8     8     9    1
    9     8    10    1
   10     8    11    1
   11    11    12    1
   12    11    13    1
   13    11    14    1
   14    14    15    1
   15    14    16    1
   16    14    17    1
   17    17    18    1
   18    17    19    1
   19    17    20    1
   20    20    21    1
   21    20    22    1
   22    22    23    1
   23    22    24    1
   24    22    25    1
   25    20    26    1
   26    26    27    1
   27    26    28    1
   28    26    29    1
@<TRIPOS>SUBSTRUCTURE
       1 MOL1            1 RESIDUE      1      MOL     
@<SCITEGIC>MOL_PROPERTY
VM2 Rank
SciTegic.value.IntegerValue
147

@<SCITEGIC>MOL_PROPERTY
Conf_Id
SciTegic.value.IntegerValue
954

@<SCITEGIC>MOL_PROPERTY
Probability
SciTegic.value.DoubleValue
0.00

@<SCITEGIC>MOL_PROPERTY
Sum Probability
SciTegic.value.DoubleValue
99.94

@<SCITEGIC>MOL_PROPERTY
Delta G
SciTegic.value.DoubleValue
4.676

@<SCITEGIC>MOL_PROPERTY
G
SciTegic.value.DoubleValue
38.377

@<SCITEGIC>MOL_PROPERTY
E
SciTegic.value.DoubleValue
0.081

@<SCITEGIC>MOL_PROPERTY
-TS
SciTegic.value.DoubleValue
38.296

@<SCITEGIC>MOL_PROPERTY
U+W
SciTegic.value.DoubleValue
-24.063

@<SCITEGIC>MOL_PROPERTY
U
SciTegic.value.DoubleValue
28.759

@<SCITEGIC>MOL_PROPERTY
W
SciTegic.value.DoubleValue
-52.822

@<SCITEGIC>MOL_PROPERTY
W(PB)
SciTegic.value.DoubleValue
-55.198

@<SCITEGIC>MOL_PROPERTY
W(SA)
SciTegic.value.DoubleValue
2.376

@<SCITEGIC>MOL_PROPERTY
Valence
SciTegic.value.DoubleValue
7.222

@<SCITEGIC>MOL_PROPERTY
Coulomb
SciTegic.value.DoubleValue
20.590

@<SCITEGIC>MOL_PROPERTY
VdW
SciTegic.value.DoubleValue
0.947

@<SCITEGIC>MOL_PROPERTY
VdW6
SciTegic.value.DoubleValue
-11.470

@<SCITEGIC>MOL_PROPERTY
VdW12
SciTegic.value.DoubleValue
12.417

@<SCITEGIC>MOL_PROPERTY
Bond
SciTegic.value.DoubleValue
0.373

@<SCITEGIC>MOL_PROPERTY
Angle
SciTegic.value.DoubleValue
2.548

@<SCITEGIC>MOL_PROPERTY
Pdih
SciTegic.value.DoubleValue
4.302

@<SCITEGIC>MOL_PROPERTY
Idih
SciTegic.value.DoubleValue
0.000

@<SCITEGIC>MOL_PROPERTY
Tether
SciTegic.value.DoubleValue
0.000

@<TRIPOS>MOLECULE
guest-s15_vm2.mol2 : vm2 ligand conformer 148
          29          28           1
SMALL
USER_CHARGES
 
@<TRIPOS>ATOM
       1    C1      18.267891   19.643205   19.915092 C.3        1 MOL1        -0.2426
       2    H1      18.082645   20.405183   19.146906 H          1 MOL1         0.0959
       3    H2      18.421981   18.682512   19.406586 H          1 MOL1         0.0959
       4    H3      17.364587   19.561718   20.533644 H          1 MOL1         0.0959
       5    C2      19.495079   20.020219   20.771517 C.3        1 MOL1        -0.1410
       6    H4      19.324977   20.999699   21.239830 H          1 MOL1         0.0948
       7    H5      20.374020   20.128695   20.120640 H          1 MOL1         0.0948
       8    C3      19.779292   18.961433   21.859464 C.3        1 MOL1        -0.1435
       9    H6      18.888228   18.845632   22.488518 H          1 MOL1         0.0948
      10    H7      19.956257   17.987075   21.383388 H          1 MOL1         0.0948
      11    C4      21.007072   19.340736   22.722210 C.3        1 MOL1        -0.1435
      12    H8      20.862444   20.322602   23.188800 H          1 MOL1         0.0948
      13    H9      21.876390   19.458682   22.060416 H          1 MOL1         0.0948
      14    C5      21.363126   18.282723   23.797594 C.3        1 MOL1        -0.1435
      15    H10     21.647638   17.351798   23.287963 H          1 MOL1         0.0948
      16    H11     22.264372   18.615535   24.330850 H          1 MOL1         0.0948
      17    C6      20.261063   17.951153   24.841528 C.3        1 MOL1        -0.1500
      18    H12     20.659130   17.152130   25.481143 H          1 MOL1         0.0948
      19    H13     19.377921   17.521000   24.352653 H          1 MOL1         0.0948
      20    C7      19.846785   19.138671   25.742441 C.3        1 MOL1         0.1162
      21    H14     20.746984   19.705721   25.998534 H          1 MOL1         0.0910
      22    C8      19.211571   18.628104   27.046192 C.3        1 MOL1        -0.2491
      23    H15     19.916117   17.998596   27.603955 H          1 MOL1         0.0959
      24    H16     18.930984   19.466242   27.696030 H          1 MOL1         0.0959
      25    H17     18.310471   18.035860   26.843070 H          1 MOL1         0.0959
      26    N1      18.904122   20.089757   25.057961 N.4        1 MOL1        -0.5987
      27    H18     19.290308   20.417118   24.168689 H          1 MOL1         0.3605
      28    H19     18.713829   20.911355   25.639152 H          1 MOL1         0.3605
      29    H20     18.006308   19.640884   24.858394 H          1 MOL1         0.3605
@<TRIPOS>BOND
    1     1     2    1
    2     1     3    1
    3     1     4    1
    4     1     5    1
    5     5     6    1
    6     5     7    1
    7     5     8    1
    8     8     9    1
    9     8    10    1
   10     8    11    1
   11    11    12    1
   12    11    13    1
   13    11    14    1
   14    14    15    1
   15    14    16    1
   16    14    17    1
   17    17    18    1
   18    17    19    1
   19    17    20    1
   20    20    21    1
   21    20    22    1
   22    22    23    1
   23    22    24    1
   24    22    25    1
   25    20    26    1
   26    26    27    1
   27    26    28    1
   28    26    29    1
@<TRIPOS>SUBSTRUCTURE
       1 MOL1            1 RESIDUE      1      MOL     
@<SCITEGIC>MOL_PROPERTY
VM2 Rank
SciTegic.value.IntegerValue
148

@<SCITEGIC>MOL_PROPERTY
Conf_Id
SciTegic.value.IntegerValue
270

@<SCITEGIC>MOL_PROPERTY
Probability
SciTegic.value.DoubleValue
0.00

@<SCITEGIC>MOL_PROPERTY
Sum Probability
SciTegic.value.DoubleValue
99.95

@<SCITEGIC>MOL_PROPERTY
Delta G
SciTegic.value.DoubleValue
4.704

@<SCITEGIC>MOL_PROPERTY
G
SciTegic.value.DoubleValue
38.406

@<SCITEGIC>MOL_PROPERTY
E
SciTegic.value.DoubleValue
0.347

@<SCITEGIC>MOL_PROPERTY
-TS
SciTegic.value.DoubleValue
38.058

@<SCITEGIC>MOL_PROPERTY
U+W
SciTegic.value.DoubleValue
-23.797

@<SCITEGIC>MOL_PROPERTY
U
SciTegic.value.DoubleValue
27.762

@<SCITEGIC>MOL_PROPERTY
W
SciTegic.value.DoubleValue
-51.559

@<SCITEGIC>MOL_PROPERTY
W(PB)
SciTegic.value.DoubleValue
-54.036

@<SCITEGIC>MOL_PROPERTY
W(SA)
SciTegic.value.DoubleValue
2.477

@<SCITEGIC>MOL_PROPERTY
Valence
SciTegic.value.DoubleValue
5.446

@<SCITEGIC>MOL_PROPERTY
Coulomb
SciTegic.value.DoubleValue
21.562

@<SCITEGIC>MOL_PROPERTY
VdW
SciTegic.value.DoubleValue
0.755

@<SCITEGIC>MOL_PROPERTY
VdW6
SciTegic.value.DoubleValue
-10.491

@<SCITEGIC>MOL_PROPERTY
VdW12
SciTegic.value.DoubleValue
11.247

@<SCITEGIC>MOL_PROPERTY
Bond
SciTegic.value.DoubleValue
0.290

@<SCITEGIC>MOL_PROPERTY
Angle
SciTegic.value.DoubleValue
2.160

@<SCITEGIC>MOL_PROPERTY
Pdih
SciTegic.value.DoubleValue
2.996

@<SCITEGIC>MOL_PROPERTY
Idih
SciTegic.value.DoubleValue
0.000

@<SCITEGIC>MOL_PROPERTY
Tether
SciTegic.value.DoubleValue
0.000

@<TRIPOS>MOLECULE
guest-s15_vm2.mol2 : vm2 ligand conformer 149
          29          28           1
SMALL
USER_CHARGES
 
@<TRIPOS>ATOM
       1    C1      20.612234   20.443179   20.583105 C.3        1 MOL1        -0.2426
       2    H1      20.253802   21.184921   21.308527 H          1 MOL1         0.0959
       3    H2      21.470016   19.915261   21.017610 H          1 MOL1         0.0959
       4    H3      20.973545   20.984565   19.699250 H          1 MOL1         0.0959
       5    C2      19.488315   19.459385   20.191285 C.3        1 MOL1        -0.1410
       6    H4      19.891639   18.696392   19.510948 H          1 MOL1         0.0948
       7    H5      18.726019   20.005588   19.618331 H          1 MOL1         0.0948
       8    C3      18.798496   18.770512   21.396121 C.3        1 MOL1        -0.1435
       9    H6      18.308948   19.526072   22.022869 H          1 MOL1         0.0948
      10    H7      17.986752   18.145686   20.998818 H          1 MOL1         0.0948
      11    C4      19.733737   17.864110   22.242563 C.3        1 MOL1        -0.1435
      12    H8      20.534317   17.469940   21.601673 H          1 MOL1         0.0948
      13    H9      19.168793   16.984104   22.579712 H          1 MOL1         0.0948
      14    C5      20.357708   18.550277   23.485648 C.3        1 MOL1        -0.1435
      15    H10     21.178583   17.915460   23.843315 H          1 MOL1         0.0948
      16    H11     20.808920   19.510162   23.207308 H          1 MOL1         0.0948
      17    C6      19.340726   18.766041   24.636999 C.3        1 MOL1        -0.1500
      18    H12     18.954542   17.795173   24.974583 H          1 MOL1         0.0948
      19    H13     18.477666   19.325712   24.257500 H          1 MOL1         0.0948
      20    C7      19.922178   19.539777   25.842506 C.3        1 MOL1         0.1162
      21    H14     20.339178   20.482847   25.475967 H          1 MOL1         0.0910
      22    C8      21.040229   18.756185   26.553417 C.3        1 MOL1        -0.2491
      23    H15     20.687280   17.770460   26.881256 H          1 MOL1         0.0959
      24    H16     21.905824   18.611194   25.896899 H          1 MOL1         0.0959
      25    H17     21.392652   19.302263   27.437130 H          1 MOL1         0.0959
      26    N1      18.842376   19.906534   26.822356 N.4        1 MOL1        -0.5987
      27    H18     18.107761   20.467755   26.381668 H          1 MOL1         0.3605
      28    H19     19.216218   20.453423   27.603294 H          1 MOL1         0.3605
      29    H20     18.397962   19.073595   27.217929 H          1 MOL1         0.3605
@<TRIPOS>BOND
    1     1     2    1
    2     1     3    1
    3     1     4    1
    4     1     5    1
    5     5     6    1
    6     5     7    1
    7     5     8    1
    8     8     9    1
    9     8    10    1
   10     8    11    1
   11    11    12    1
   12    11    13    1
   13    11    14    1
   14    14    15    1
   15    14    16    1
   16    14    17    1
   17    17    18    1
   18    17    19    1
   19    17    20    1
   20    20    21    1
   21    20    22    1
   22    22    23    1
   23    22    24    1
   24    22    25    1
   25    20    26    1
   26    26    27    1
   27    26    28    1
   28    26    29    1
@<TRIPOS>SUBSTRUCTURE
       1 MOL1            1 RESIDUE      1      MOL     
@<SCITEGIC>MOL_PROPERTY
VM2 Rank
SciTegic.value.IntegerValue
149

@<SCITEGIC>MOL_PROPERTY
Conf_Id
SciTegic.value.IntegerValue
182

@<SCITEGIC>MOL_PROPERTY
Probability
SciTegic.value.DoubleValue
0.00

@<SCITEGIC>MOL_PROPERTY
Sum Probability
SciTegic.value.DoubleValue
99.95

@<SCITEGIC>MOL_PROPERTY
Delta G
SciTegic.value.DoubleValue
4.730

@<SCITEGIC>MOL_PROPERTY
G
SciTegic.value.DoubleValue
38.432

@<SCITEGIC>MOL_PROPERTY
E
SciTegic.value.DoubleValue
0.585

@<SCITEGIC>MOL_PROPERTY
-TS
SciTegic.value.DoubleValue
37.847

@<SCITEGIC>MOL_PROPERTY
U+W
SciTegic.value.DoubleValue
-23.559

@<SCITEGIC>MOL_PROPERTY
U
SciTegic.value.DoubleValue
28.875

@<SCITEGIC>MOL_PROPERTY
W
SciTegic.value.DoubleValue
-52.435

@<SCITEGIC>MOL_PROPERTY
W(PB)
SciTegic.value.DoubleValue
-54.885

@<SCITEGIC>MOL_PROPERTY
W(SA)
SciTegic.value.DoubleValue
2.450

@<SCITEGIC>MOL_PROPERTY
Valence
SciTegic.value.DoubleValue
7.510

@<SCITEGIC>MOL_PROPERTY
Coulomb
SciTegic.value.DoubleValue
19.951

@<SCITEGIC>MOL_PROPERTY
VdW
SciTegic.value.DoubleValue
1.414

@<SCITEGIC>MOL_PROPERTY
VdW6
SciTegic.value.DoubleValue
-10.241

@<SCITEGIC>MOL_PROPERTY
VdW12
SciTegic.value.DoubleValue
11.655

@<SCITEGIC>MOL_PROPERTY
Bond
SciTegic.value.DoubleValue
0.342

@<SCITEGIC>MOL_PROPERTY
Angle
SciTegic.value.DoubleValue
2.142

@<SCITEGIC>MOL_PROPERTY
Pdih
SciTegic.value.DoubleValue
5.026

@<SCITEGIC>MOL_PROPERTY
Idih
SciTegic.value.DoubleValue
0.000

@<SCITEGIC>MOL_PROPERTY
Tether
SciTegic.value.DoubleValue
0.000

@<TRIPOS>MOLECULE
guest-s15_vm2.mol2 : vm2 ligand conformer 150
          29          28           1
SMALL
USER_CHARGES
 
@<TRIPOS>ATOM
       1    C1      18.737081   20.544278   21.039198 C.3        1 MOL1        -0.2426
       2    H1      18.512787   21.468105   20.490406 H          1 MOL1         0.0959
       3    H2      17.885000   19.863697   20.913795 H          1 MOL1         0.0959
       4    H3      18.823533   20.807561   22.099509 H          1 MOL1         0.0959
       5    C2      20.041311   19.908000   20.512049 C.3        1 MOL1        -0.1410
       6    H4      20.885855   20.578723   20.723150 H          1 MOL1         0.0948
       7    H5      19.978381   19.834093   19.417373 H          1 MOL1         0.0948
       8    C3      20.341334   18.497892   21.081294 C.3        1 MOL1        -0.1435
       9    H6      19.548756   17.795975   20.787852 H          1 MOL1         0.0948
      10    H7      21.254803   18.132978   20.591619 H          1 MOL1         0.0948
      11    C4      20.565467   18.448872   22.615132 C.3        1 MOL1        -0.1435
      12    H8      20.992473   19.400977   22.956358 H          1 MOL1         0.0948
      13    H9      21.322845   17.681987   22.828671 H          1 MOL1         0.0948
      14    C5      19.284676   18.094742   23.414129 C.3        1 MOL1        -0.1435
      15    H10     18.498125   18.836456   23.236208 H          1 MOL1         0.0948
      16    H11     18.885265   17.141416   23.041699 H          1 MOL1         0.0948
      17    C6      19.537790   17.953650   24.936999 C.3        1 MOL1        -0.1500
      18    H12     20.244558   17.129658   25.102741 H          1 MOL1         0.0948
      19    H13     18.601880   17.657867   25.429396 H          1 MOL1         0.0948
      20    C7      20.087706   19.231097   25.610090 C.3        1 MOL1         0.1162
      21    H14     21.029264   19.500233   25.122565 H          1 MOL1         0.0910
      22    C8      20.376206   18.970366   27.096837 C.3        1 MOL1        -0.2491
      23    H15     19.460511   18.700739   27.637871 H          1 MOL1         0.0959
      24    H16     21.097057   18.151880   27.215988 H          1 MOL1         0.0959
      25    H17     20.803705   19.862132   27.571577 H          1 MOL1         0.0959
      26    N1      19.164429   20.407102   25.448272 N.4        1 MOL1        -0.5987
      27    H18     18.257392   20.230948   25.888734 H          1 MOL1         0.3605
      28    H19     18.995426   20.611022   24.459866 H          1 MOL1         0.3605
      29    H20     19.555206   21.251307   25.876614 H          1 MOL1         0.3605
@<TRIPOS>BOND
    1     1     2    1
    2     1     3    1
    3     1     4    1
    4     1     5    1
    5     5     6    1
    6     5     7    1
    7     5     8    1
    8     8     9    1
    9     8    10    1
   10     8    11    1
   11    11    12    1
   12    11    13    1
   13    11    14    1
   14    14    15    1
   15    14    16    1
   16    14    17    1
   17    17    18    1
   18    17    19    1
   19    17    20    1
   20    20    21    1
   21    20    22    1
   22    22    23    1
   23    22    24    1
   24    22    25    1
   25    20    26    1
   26    26    27    1
   27    26    28    1
   28    26    29    1
@<TRIPOS>SUBSTRUCTURE
       1 MOL1            1 RESIDUE      1      MOL     
@<SCITEGIC>MOL_PROPERTY
VM2 Rank
SciTegic.value.IntegerValue
150

@<SCITEGIC>MOL_PROPERTY
Conf_Id
SciTegic.value.IntegerValue
993

@<SCITEGIC>MOL_PROPERTY
Probability
SciTegic.value.DoubleValue
0.00

@<SCITEGIC>MOL_PROPERTY
Sum Probability
SciTegic.value.DoubleValue
99.95

@<SCITEGIC>MOL_PROPERTY
Delta G
SciTegic.value.DoubleValue
4.756

@<SCITEGIC>MOL_PROPERTY
G
SciTegic.value.DoubleValue
38.458

@<SCITEGIC>MOL_PROPERTY
E
SciTegic.value.DoubleValue
0.591

@<SCITEGIC>MOL_PROPERTY
-TS
SciTegic.value.DoubleValue
37.866

@<SCITEGIC>MOL_PROPERTY
U+W
SciTegic.value.DoubleValue
-23.553

@<SCITEGIC>MOL_PROPERTY
U
SciTegic.value.DoubleValue
28.544

@<SCITEGIC>MOL_PROPERTY
W
SciTegic.value.DoubleValue
-52.097

@<SCITEGIC>MOL_PROPERTY
W(PB)
SciTegic.value.DoubleValue
-54.537

@<SCITEGIC>MOL_PROPERTY
W(SA)
SciTegic.value.DoubleValue
2.440

@<SCITEGIC>MOL_PROPERTY
Valence
SciTegic.value.DoubleValue
6.447

@<SCITEGIC>MOL_PROPERTY
Coulomb
SciTegic.value.DoubleValue
21.308

@<SCITEGIC>MOL_PROPERTY
VdW
SciTegic.value.DoubleValue
0.789

@<SCITEGIC>MOL_PROPERTY
VdW6
SciTegic.value.DoubleValue
-10.662

@<SCITEGIC>MOL_PROPERTY
VdW12
SciTegic.value.DoubleValue
11.451

@<SCITEGIC>MOL_PROPERTY
Bond
SciTegic.value.DoubleValue
0.309

@<SCITEGIC>MOL_PROPERTY
Angle
SciTegic.value.DoubleValue
1.905

@<SCITEGIC>MOL_PROPERTY
Pdih
SciTegic.value.DoubleValue
4.232

@<SCITEGIC>MOL_PROPERTY
Idih
SciTegic.value.DoubleValue
0.000

@<SCITEGIC>MOL_PROPERTY
Tether
SciTegic.value.DoubleValue
0.000

@<TRIPOS>MOLECULE
guest-s15_vm2.mol2 : vm2 ligand conformer 151
          29          28           1
SMALL
USER_CHARGES
 
@<TRIPOS>ATOM
       1    C1      19.069272   19.735347   19.382769 C.3        1 MOL1        -0.2426
       2    H1      20.061622   19.898588   18.942499 H          1 MOL1         0.0959
       3    H2      18.668260   18.794788   18.983069 H          1 MOL1         0.0959
       4    H3      18.413881   20.550015   19.048398 H          1 MOL1         0.0959
       5    C2      19.146446   19.695663   20.923644 C.3        1 MOL1        -0.1410
       6    H4      18.136424   19.561215   21.335116 H          1 MOL1         0.0948
       7    H5      19.512879   20.664937   21.287188 H          1 MOL1         0.0948
       8    C3      20.068652   18.556624   21.418662 C.3        1 MOL1        -0.1435
       9    H6      19.727316   17.606291   20.985467 H          1 MOL1         0.0948
      10    H7      21.088916   18.716809   21.043645 H          1 MOL1         0.0948
      11    C4      20.098298   18.411780   22.959788 C.3        1 MOL1        -0.1435
      12    H8      20.693503   17.524244   23.214969 H          1 MOL1         0.0948
      13    H9      19.077905   18.223118   23.314676 H          1 MOL1         0.0948
      14    C5      20.692509   19.646749   23.680350 C.3        1 MOL1        -0.1435
      15    H10     21.620241   19.936351   23.167874 H          1 MOL1         0.0948
      16    H11     20.015700   20.504392   23.576202 H          1 MOL1         0.0948
      17    C6      21.032110   19.426766   25.181969 C.3        1 MOL1        -0.1500
      18    H12     21.500481   20.349619   25.548354 H          1 MOL1         0.0948
      19    H13     21.807164   18.654651   25.275324 H          1 MOL1         0.0948
      20    C7      19.856285   19.099801   26.138853 C.3        1 MOL1         0.1162
      21    H14     20.173151   19.408638   27.139824 H          1 MOL1         0.0910
      22    C8      19.559901   17.591241   26.225013 C.3        1 MOL1        -0.2491
      23    H15     18.819851   17.393217   27.010039 H          1 MOL1         0.0959
      24    H16     19.164173   17.187790   25.288415 H          1 MOL1         0.0959
      25    H17     20.467410   17.030627   26.480982 H          1 MOL1         0.0959
      26    N1      18.612527   19.892029   25.842952 N.4        1 MOL1        -0.5987
      27    H18     18.249819   19.671756   24.912109 H          1 MOL1         0.3605
      28    H19     18.795856   20.899076   25.873159 H          1 MOL1         0.3605
      29    H20     17.871413   19.693982   26.521344 H          1 MOL1         0.3605
@<TRIPOS>BOND
    1     1     2    1
    2     1     3    1
    3     1     4    1
    4     1     5    1
    5     5     6    1
    6     5     7    1
    7     5     8    1
    8     8     9    1
    9     8    10    1
   10     8    11    1
   11    11    12    1
   12    11    13    1
   13    11    14    1
   14    14    15    1
   15    14    16    1
   16    14    17    1
   17    17    18    1
   18    17    19    1
   19    17    20    1
   20    20    21    1
   21    20    22    1
   22    22    23    1
   23    22    24    1
   24    22    25    1
   25    20    26    1
   26    26    27    1
   27    26    28    1
   28    26    29    1
@<TRIPOS>SUBSTRUCTURE
       1 MOL1            1 RESIDUE      1      MOL     
@<SCITEGIC>MOL_PROPERTY
VM2 Rank
SciTegic.value.IntegerValue
151

@<SCITEGIC>MOL_PROPERTY
Conf_Id
SciTegic.value.IntegerValue
674

@<SCITEGIC>MOL_PROPERTY
Probability
SciTegic.value.DoubleValue
0.00

@<SCITEGIC>MOL_PROPERTY
Sum Probability
SciTegic.value.DoubleValue
99.96

@<SCITEGIC>MOL_PROPERTY
Delta G
SciTegic.value.DoubleValue
4.782

@<SCITEGIC>MOL_PROPERTY
G
SciTegic.value.DoubleValue
38.483

@<SCITEGIC>MOL_PROPERTY
E
SciTegic.value.DoubleValue
0.470

@<SCITEGIC>MOL_PROPERTY
-TS
SciTegic.value.DoubleValue
38.013

@<SCITEGIC>MOL_PROPERTY
U+W
SciTegic.value.DoubleValue
-23.674

@<SCITEGIC>MOL_PROPERTY
U
SciTegic.value.DoubleValue
28.749

@<SCITEGIC>MOL_PROPERTY
W
SciTegic.value.DoubleValue
-52.423

@<SCITEGIC>MOL_PROPERTY
W(PB)
SciTegic.value.DoubleValue
-54.870

@<SCITEGIC>MOL_PROPERTY
W(SA)
SciTegic.value.DoubleValue
2.447

@<SCITEGIC>MOL_PROPERTY
Valence
SciTegic.value.DoubleValue
6.743

@<SCITEGIC>MOL_PROPERTY
Coulomb
SciTegic.value.DoubleValue
20.841

@<SCITEGIC>MOL_PROPERTY
VdW
SciTegic.value.DoubleValue
1.164

@<SCITEGIC>MOL_PROPERTY
VdW6
SciTegic.value.DoubleValue
-10.610

@<SCITEGIC>MOL_PROPERTY
VdW12
SciTegic.value.DoubleValue
11.774

@<SCITEGIC>MOL_PROPERTY
Bond
SciTegic.value.DoubleValue
0.335

@<SCITEGIC>MOL_PROPERTY
Angle
SciTegic.value.DoubleValue
2.546

@<SCITEGIC>MOL_PROPERTY
Pdih
SciTegic.value.DoubleValue
3.863

@<SCITEGIC>MOL_PROPERTY
Idih
SciTegic.value.DoubleValue
0.000

@<SCITEGIC>MOL_PROPERTY
Tether
SciTegic.value.DoubleValue
0.000

@<TRIPOS>MOLECULE
guest-s15_vm2.mol2 : vm2 ligand conformer 152
          29          28           1
SMALL
USER_CHARGES
 
@<TRIPOS>ATOM
       1    C1      19.200153   20.351682   20.497973 C.3        1 MOL1        -0.2426
       2    H1      18.280751   19.782662   20.683879 H          1 MOL1         0.0959
       3    H2      18.912714   21.396177   20.321247 H          1 MOL1         0.0959
       4    H3      19.661383   19.969670   19.578046 H          1 MOL1         0.0959
       5    C2      20.177070   20.253381   21.690931 C.3        1 MOL1        -0.1410
       6    H4      19.685429   20.626012   22.597350 H          1 MOL1         0.0948
       7    H5      21.025845   20.927271   21.509206 H          1 MOL1         0.0948
       8    C3      20.724129   18.821427   21.920349 C.3        1 MOL1        -0.1435
       9    H6      21.283701   18.515148   21.025856 H          1 MOL1         0.0948
      10    H7      21.463295   18.836038   22.731021 H          1 MOL1         0.0948
      11    C4      19.649641   17.742412   22.216236 C.3        1 MOL1        -0.1435
      12    H8      20.153109   16.773994   22.341303 H          1 MOL1         0.0948
      13    H9      19.011072   17.622938   21.330993 H          1 MOL1         0.0948
      14    C5      18.743185   17.996689   23.450639 C.3        1 MOL1        -0.1435
      15    H10     18.165484   18.920116   23.321293 H          1 MOL1         0.0948
      16    H11     17.996329   17.191194   23.474253 H          1 MOL1         0.0948
      17    C6      19.487867   17.986174   24.813513 C.3        1 MOL1        -0.1500
      18    H12     20.269651   17.215501   24.788624 H          1 MOL1         0.0948
      19    H13     18.785443   17.674884   25.598114 H          1 MOL1         0.0948
      20    C7      20.102950   19.343056   25.223863 C.3        1 MOL1         0.1162
      21    H14     20.723456   19.712314   24.404338 H          1 MOL1         0.0910
      22    C8      20.998113   19.171151   26.461053 C.3        1 MOL1        -0.2491
      23    H15     21.459449   20.125827   26.742408 H          1 MOL1         0.0959
      24    H16     20.422631   18.803064   27.319704 H          1 MOL1         0.0959
      25    H17     21.806977   18.457517   26.260516 H          1 MOL1         0.0959
      26    N1      19.052892   20.390027   25.479442 N.4        1 MOL1        -0.5987
      27    H18     19.474110   21.291641   25.721119 H          1 MOL1         0.3605
      28    H19     18.442066   20.120668   26.255364 H          1 MOL1         0.3605
      29    H20     18.460329   20.535328   24.657993 H          1 MOL1         0.3605
@<TRIPOS>BOND
    1     1     2    1
    2     1     3    1
    3     1     4    1
    4     1     5    1
    5     5     6    1
    6     5     7    1
    7     5     8    1
    8     8     9    1
    9     8    10    1
   10     8    11    1
   11    11    12    1
   12    11    13    1
   13    11    14    1
   14    14    15    1
   15    14    16    1
   16    14    17    1
   17    17    18    1
   18    17    19    1
   19    17    20    1
   20    20    21    1
   21    20    22    1
   22    22    23    1
   23    22    24    1
   24    22    25    1
   25    20    26    1
   26    26    27    1
   27    26    28    1
   28    26    29    1
@<TRIPOS>SUBSTRUCTURE
       1 MOL1            1 RESIDUE      1      MOL     
@<SCITEGIC>MOL_PROPERTY
VM2 Rank
SciTegic.value.IntegerValue
152

@<SCITEGIC>MOL_PROPERTY
Conf_Id
SciTegic.value.IntegerValue
615

@<SCITEGIC>MOL_PROPERTY
Probability
SciTegic.value.DoubleValue
0.00

@<SCITEGIC>MOL_PROPERTY
Sum Probability
SciTegic.value.DoubleValue
99.96

@<SCITEGIC>MOL_PROPERTY
Delta G
SciTegic.value.DoubleValue
4.789

@<SCITEGIC>MOL_PROPERTY
G
SciTegic.value.DoubleValue
38.491

@<SCITEGIC>MOL_PROPERTY
E
SciTegic.value.DoubleValue
-0.162

@<SCITEGIC>MOL_PROPERTY
-TS
SciTegic.value.DoubleValue
38.652

@<SCITEGIC>MOL_PROPERTY
U+W
SciTegic.value.DoubleValue
-24.306

@<SCITEGIC>MOL_PROPERTY
U
SciTegic.value.DoubleValue
28.628

@<SCITEGIC>MOL_PROPERTY
W
SciTegic.value.DoubleValue
-52.934

@<SCITEGIC>MOL_PROPERTY
W(PB)
SciTegic.value.DoubleValue
-55.335

@<SCITEGIC>MOL_PROPERTY
W(SA)
SciTegic.value.DoubleValue
2.402

@<SCITEGIC>MOL_PROPERTY
Valence
SciTegic.value.DoubleValue
6.751

@<SCITEGIC>MOL_PROPERTY
Coulomb
SciTegic.value.DoubleValue
21.512

@<SCITEGIC>MOL_PROPERTY
VdW
SciTegic.value.DoubleValue
0.364

@<SCITEGIC>MOL_PROPERTY
VdW6
SciTegic.value.DoubleValue
-12.196

@<SCITEGIC>MOL_PROPERTY
VdW12
SciTegic.value.DoubleValue
12.560

@<SCITEGIC>MOL_PROPERTY
Bond
SciTegic.value.DoubleValue
0.349

@<SCITEGIC>MOL_PROPERTY
Angle
SciTegic.value.DoubleValue
2.627

@<SCITEGIC>MOL_PROPERTY
Pdih
SciTegic.value.DoubleValue
3.776

@<SCITEGIC>MOL_PROPERTY
Idih
SciTegic.value.DoubleValue
0.000

@<SCITEGIC>MOL_PROPERTY
Tether
SciTegic.value.DoubleValue
0.000

@<TRIPOS>MOLECULE
guest-s15_vm2.mol2 : vm2 ligand conformer 153
          29          28           1
SMALL
USER_CHARGES
 
@<TRIPOS>ATOM
       1    C1      18.381972   19.935264   20.809639 C.3        1 MOL1        -0.2426
       2    H1      18.207145   19.417797   19.857496 H          1 MOL1         0.0959
       3    H2      17.921604   19.341605   21.608323 H          1 MOL1         0.0959
       4    H3      17.858791   20.899290   20.768215 H          1 MOL1         0.0959
       5    C2      19.893623   20.149284   21.052009 C.3        1 MOL1        -0.1410
       6    H4      20.056999   20.692677   21.991347 H          1 MOL1         0.0948
       7    H5      20.284485   20.802561   20.259517 H          1 MOL1         0.0948
       8    C3      20.706494   18.831690   21.045904 C.3        1 MOL1        -0.1435
       9    H6      20.573806   18.343406   20.070662 H          1 MOL1         0.0948
      10    H7      21.775602   19.076086   21.111911 H          1 MOL1         0.0948
      11    C4      20.356431   17.810781   22.162090 C.3        1 MOL1        -0.1435
      12    H8      20.950996   16.906730   21.970990 H          1 MOL1         0.0948
      13    H9      19.309472   17.489691   22.082902 H          1 MOL1         0.0948
      14    C5      20.673796   18.290439   23.603064 C.3        1 MOL1        -0.1435
      15    H10     21.034389   17.424138   24.172861 H          1 MOL1         0.0948
      16    H11     21.502662   19.011377   23.586332 H          1 MOL1         0.0948
      17    C6      19.449864   18.893789   24.340322 C.3        1 MOL1        -0.1500
      18    H12     18.672334   18.126331   24.450373 H          1 MOL1         0.0948
      19    H13     19.011239   19.688172   23.727900 H          1 MOL1         0.0948
      20    C7      19.790378   19.488498   25.725915 C.3        1 MOL1         0.1162
      21    H14     20.594953   20.219035   25.597134 H          1 MOL1         0.0910
      22    C8      20.263135   18.413526   26.721033 C.3        1 MOL1        -0.2491
      23    H15     19.514075   17.619807   26.833368 H          1 MOL1         0.0959
      24    H16     21.204353   17.955321   26.396172 H          1 MOL1         0.0959
      25    H17     20.442280   18.854329   27.709439 H          1 MOL1         0.0959
      26    N1      18.620308   20.242729   26.294023 N.4        1 MOL1        -0.5987
      27    H18     17.817956   19.626309   26.449000 H          1 MOL1         0.3605
      28    H19     18.315667   20.993942   25.668193 H          1 MOL1         0.3605
      29    H20     18.853917   20.672002   27.193956 H          1 MOL1         0.3605
@<TRIPOS>BOND
    1     1     2    1
    2     1     3    1
    3     1     4    1
    4     1     5    1
    5     5     6    1
    6     5     7    1
    7     5     8    1
    8     8     9    1
    9     8    10    1
   10     8    11    1
   11    11    12    1
   12    11    13    1
   13    11    14    1
   14    14    15    1
   15    14    16    1
   16    14    17    1
   17    17    18    1
   18    17    19    1
   19    17    20    1
   20    20    21    1
   21    20    22    1
   22    22    23    1
   23    22    24    1
   24    22    25    1
   25    20    26    1
   26    26    27    1
   27    26    28    1
   28    26    29    1
@<TRIPOS>SUBSTRUCTURE
       1 MOL1            1 RESIDUE      1      MOL     
@<SCITEGIC>MOL_PROPERTY
VM2 Rank
SciTegic.value.IntegerValue
153

@<SCITEGIC>MOL_PROPERTY
Conf_Id
SciTegic.value.IntegerValue
997

@<SCITEGIC>MOL_PROPERTY
Probability
SciTegic.value.DoubleValue
0.00

@<SCITEGIC>MOL_PROPERTY
Sum Probability
SciTegic.value.DoubleValue
99.96

@<SCITEGIC>MOL_PROPERTY
Delta G
SciTegic.value.DoubleValue
4.797

@<SCITEGIC>MOL_PROPERTY
G
SciTegic.value.DoubleValue
38.499

@<SCITEGIC>MOL_PROPERTY
E
SciTegic.value.DoubleValue
0.266

@<SCITEGIC>MOL_PROPERTY
-TS
SciTegic.value.DoubleValue
38.233

@<SCITEGIC>MOL_PROPERTY
U+W
SciTegic.value.DoubleValue
-23.879

@<SCITEGIC>MOL_PROPERTY
U
SciTegic.value.DoubleValue
28.814

@<SCITEGIC>MOL_PROPERTY
W
SciTegic.value.DoubleValue
-52.692

@<SCITEGIC>MOL_PROPERTY
W(PB)
SciTegic.value.DoubleValue
-55.134

@<SCITEGIC>MOL_PROPERTY
W(SA)
SciTegic.value.DoubleValue
2.442

@<SCITEGIC>MOL_PROPERTY
Valence
SciTegic.value.DoubleValue
7.405

@<SCITEGIC>MOL_PROPERTY
Coulomb
SciTegic.value.DoubleValue
20.332

@<SCITEGIC>MOL_PROPERTY
VdW
SciTegic.value.DoubleValue
1.077

@<SCITEGIC>MOL_PROPERTY
VdW6
SciTegic.value.DoubleValue
-10.782

@<SCITEGIC>MOL_PROPERTY
VdW12
SciTegic.value.DoubleValue
11.859

@<SCITEGIC>MOL_PROPERTY
Bond
SciTegic.value.DoubleValue
0.335

@<SCITEGIC>MOL_PROPERTY
Angle
SciTegic.value.DoubleValue
2.432

@<SCITEGIC>MOL_PROPERTY
Pdih
SciTegic.value.DoubleValue
4.638

@<SCITEGIC>MOL_PROPERTY
Idih
SciTegic.value.DoubleValue
0.000

@<SCITEGIC>MOL_PROPERTY
Tether
SciTegic.value.DoubleValue
0.000

@<TRIPOS>MOLECULE
guest-s15_vm2.mol2 : vm2 ligand conformer 154
          29          28           1
SMALL
USER_CHARGES
 
@<TRIPOS>ATOM
       1    C1      18.926186   20.391710   19.891456 C.3        1 MOL1        -0.2426
       2    H1      18.171173   20.248273   19.107613 H          1 MOL1         0.0959
       3    H2      18.656357   21.292142   20.458560 H          1 MOL1         0.0959
       4    H3      19.891304   20.573089   19.400647 H          1 MOL1         0.0959
       5    C2      18.996476   19.155686   20.812805 C.3        1 MOL1        -0.1410
       6    H4      19.233371   18.266421   20.211964 H          1 MOL1         0.0948
       7    H5      18.009230   18.980374   21.262482 H          1 MOL1         0.0948
       8    C3      20.054584   19.331167   21.924117 C.3        1 MOL1        -0.1435
       9    H6      21.039790   19.498451   21.467324 H          1 MOL1         0.0948
      10    H7      19.820616   20.232590   22.503401 H          1 MOL1         0.0948
      11    C4      20.122942   18.094242   22.851729 C.3        1 MOL1        -0.1435
      12    H8      20.352348   17.210561   22.240220 H          1 MOL1         0.0948
      13    H9      19.141645   17.894066   23.297898 H          1 MOL1         0.0948
      14    C5      21.202625   18.207285   23.958003 C.3        1 MOL1        -0.1435
      15    H10     21.236897   17.262886   24.517380 H          1 MOL1         0.0948
      16    H11     22.185378   18.290706   23.473927 H          1 MOL1         0.0948
      17    C6      21.051307   19.392884   24.956063 C.3        1 MOL1        -0.1500
      18    H12     21.170822   20.345184   24.424475 H          1 MOL1         0.0948
      19    H13     21.899618   19.347784   25.651598 H          1 MOL1         0.0948
      20    C7      19.757337   19.444555   25.808487 C.3        1 MOL1         0.1162
      21    H14     19.921445   20.193964   26.588944 H          1 MOL1         0.0910
      22    C8      19.463931   18.108406   26.512642 C.3        1 MOL1        -0.2491
      23    H15     19.194075   17.323358   25.796286 H          1 MOL1         0.0959
      24    H16     20.338041   17.769347   27.082297 H          1 MOL1         0.0959
      25    H17     18.630697   18.220465   27.217091 H          1 MOL1         0.0959
      26    N1      18.560613   19.930064   25.038699 N.4        1 MOL1        -0.5987
      27    H18     18.359675   19.316444   24.245744 H          1 MOL1         0.3605
      28    H19     18.712119   20.872916   24.669286 H          1 MOL1         0.3605
      29    H20     17.724725   19.963252   25.629498 H          1 MOL1         0.3605
@<TRIPOS>BOND
    1     1     2    1
    2     1     3    1
    3     1     4    1
    4     1     5    1
    5     5     6    1
    6     5     7    1
    7     5     8    1
    8     8     9    1
    9     8    10    1
   10     8    11    1
   11    11    12    1
   12    11    13    1
   13    11    14    1
   14    14    15    1
   15    14    16    1
   16    14    17    1
   17    17    18    1
   18    17    19    1
   19    17    20    1
   20    20    21    1
   21    20    22    1
   22    22    23    1
   23    22    24    1
   24    22    25    1
   25    20    26    1
   26    26    27    1
   27    26    28    1
   28    26    29    1
@<TRIPOS>SUBSTRUCTURE
       1 MOL1            1 RESIDUE      1      MOL     
@<SCITEGIC>MOL_PROPERTY
VM2 Rank
SciTegic.value.IntegerValue
154

@<SCITEGIC>MOL_PROPERTY
Conf_Id
SciTegic.value.IntegerValue
991

@<SCITEGIC>MOL_PROPERTY
Probability
SciTegic.value.DoubleValue
0.00

@<SCITEGIC>MOL_PROPERTY
Sum Probability
SciTegic.value.DoubleValue
99.97

@<SCITEGIC>MOL_PROPERTY
Delta G
SciTegic.value.DoubleValue
4.822

@<SCITEGIC>MOL_PROPERTY
G
SciTegic.value.DoubleValue
38.524

@<SCITEGIC>MOL_PROPERTY
E
SciTegic.value.DoubleValue
0.044

@<SCITEGIC>MOL_PROPERTY
-TS
SciTegic.value.DoubleValue
38.481

@<SCITEGIC>MOL_PROPERTY
U+W
SciTegic.value.DoubleValue
-24.101

@<SCITEGIC>MOL_PROPERTY
U
SciTegic.value.DoubleValue
28.029

@<SCITEGIC>MOL_PROPERTY
W
SciTegic.value.DoubleValue
-52.130

@<SCITEGIC>MOL_PROPERTY
W(PB)
SciTegic.value.DoubleValue
-54.545

@<SCITEGIC>MOL_PROPERTY
W(SA)
SciTegic.value.DoubleValue
2.415

@<SCITEGIC>MOL_PROPERTY
Valence
SciTegic.value.DoubleValue
5.578

@<SCITEGIC>MOL_PROPERTY
Coulomb
SciTegic.value.DoubleValue
21.811

@<SCITEGIC>MOL_PROPERTY
VdW
SciTegic.value.DoubleValue
0.640

@<SCITEGIC>MOL_PROPERTY
VdW6
SciTegic.value.DoubleValue
-11.463

@<SCITEGIC>MOL_PROPERTY
VdW12
SciTegic.value.DoubleValue
12.103

@<SCITEGIC>MOL_PROPERTY
Bond
SciTegic.value.DoubleValue
0.349

@<SCITEGIC>MOL_PROPERTY
Angle
SciTegic.value.DoubleValue
2.654

@<SCITEGIC>MOL_PROPERTY
Pdih
SciTegic.value.DoubleValue
2.574

@<SCITEGIC>MOL_PROPERTY
Idih
SciTegic.value.DoubleValue
0.000

@<SCITEGIC>MOL_PROPERTY
Tether
SciTegic.value.DoubleValue
0.000

@<TRIPOS>MOLECULE
guest-s15_vm2.mol2 : vm2 ligand conformer 155
          29          28           1
SMALL
USER_CHARGES
 
@<TRIPOS>ATOM
       1    C1      20.115307   18.701381   19.445118 C.3        1 MOL1        -0.2426
       2    H1      20.464856   19.684433   19.103878 H          1 MOL1         0.0959
       3    H2      20.967538   18.164473   19.879655 H          1 MOL1         0.0959
       4    H3      19.785830   18.137428   18.562892 H          1 MOL1         0.0959
       5    C2      18.957252   18.844432   20.458571 C.3        1 MOL1        -0.1410
       6    H4      18.648319   17.849950   20.809667 H          1 MOL1         0.0948
       7    H5      18.086599   19.272069   19.941998 H          1 MOL1         0.0948
       8    C3      19.304982   19.742403   21.670425 C.3        1 MOL1        -0.1435
       9    H6      19.595469   20.740219   21.314066 H          1 MOL1         0.0948
      10    H7      18.393022   19.882900   22.264138 H          1 MOL1         0.0948
      11    C4      20.429861   19.160925   22.564723 C.3        1 MOL1        -0.1435
      12    H8      21.353654   19.088836   21.976189 H          1 MOL1         0.0948
      13    H9      20.173080   18.136798   22.861197 H          1 MOL1         0.0948
      14    C5      20.724927   20.030760   23.814411 C.3        1 MOL1        -0.1435
      15    H10     21.698683   19.747810   24.237587 H          1 MOL1         0.0948
      16    H11     20.840060   21.074239   23.489938 H          1 MOL1         0.0948
      17    C6      19.640632   19.963566   24.925528 C.3        1 MOL1        -0.1500
      18    H12     18.657118   19.729718   24.500878 H          1 MOL1         0.0948
      19    H13     19.546656   20.967063   25.361092 H          1 MOL1         0.0948
      20    C7      19.959642   18.982736   26.079122 C.3        1 MOL1         0.1162
      21    H14     20.925630   19.264879   26.509036 H          1 MOL1         0.0910
      22    C8      20.051499   17.521484   25.608271 C.3        1 MOL1        -0.2491
      23    H15     19.136197   17.213219   25.087851 H          1 MOL1         0.0959
      24    H16     20.901995   17.378951   24.931712 H          1 MOL1         0.0959
      25    H17     20.201669   16.848590   26.461463 H          1 MOL1         0.0959
      26    N1      18.951899   19.108312   27.187832 N.4        1 MOL1        -0.5987
      27    H18     18.012561   18.855311   26.869539 H          1 MOL1         0.3605
      28    H19     18.907161   20.065103   27.550334 H          1 MOL1         0.3605
      29    H20     19.183488   18.495114   27.974607 H          1 MOL1         0.3605
@<TRIPOS>BOND
    1     1     2    1
    2     1     3    1
    3     1     4    1
    4     1     5    1
    5     5     6    1
    6     5     7    1
    7     5     8    1
    8     8     9    1
    9     8    10    1
   10     8    11    1
   11    11    12    1
   12    11    13    1
   13    11    14    1
   14    14    15    1
   15    14    16    1
   16    14    17    1
   17    17    18    1
   18    17    19    1
   19    17    20    1
   20    20    21    1
   21    20    22    1
   22    22    23    1
   23    22    24    1
   24    22    25    1
   25    20    26    1
   26    26    27    1
   27    26    28    1
   28    26    29    1
@<TRIPOS>SUBSTRUCTURE
       1 MOL1            1 RESIDUE      1      MOL     
@<SCITEGIC>MOL_PROPERTY
VM2 Rank
SciTegic.value.IntegerValue
155

@<SCITEGIC>MOL_PROPERTY
Conf_Id
SciTegic.value.IntegerValue
93

@<SCITEGIC>MOL_PROPERTY
Probability
SciTegic.value.DoubleValue
0.00

@<SCITEGIC>MOL_PROPERTY
Sum Probability
SciTegic.value.DoubleValue
99.97

@<SCITEGIC>MOL_PROPERTY
Delta G
SciTegic.value.DoubleValue
4.842

@<SCITEGIC>MOL_PROPERTY
G
SciTegic.value.DoubleValue
38.544

@<SCITEGIC>MOL_PROPERTY
E
SciTegic.value.DoubleValue
0.671

@<SCITEGIC>MOL_PROPERTY
-TS
SciTegic.value.DoubleValue
37.873

@<SCITEGIC>MOL_PROPERTY
U+W
SciTegic.value.DoubleValue
-23.473

@<SCITEGIC>MOL_PROPERTY
U
SciTegic.value.DoubleValue
28.780

@<SCITEGIC>MOL_PROPERTY
W
SciTegic.value.DoubleValue
-52.253

@<SCITEGIC>MOL_PROPERTY
W(PB)
SciTegic.value.DoubleValue
-54.714

@<SCITEGIC>MOL_PROPERTY
W(SA)
SciTegic.value.DoubleValue
2.461

@<SCITEGIC>MOL_PROPERTY
Valence
SciTegic.value.DoubleValue
7.565

@<SCITEGIC>MOL_PROPERTY
Coulomb
SciTegic.value.DoubleValue
19.822

@<SCITEGIC>MOL_PROPERTY
VdW
SciTegic.value.DoubleValue
1.392

@<SCITEGIC>MOL_PROPERTY
VdW6
SciTegic.value.DoubleValue
-10.248

@<SCITEGIC>MOL_PROPERTY
VdW12
SciTegic.value.DoubleValue
11.640

@<SCITEGIC>MOL_PROPERTY
Bond
SciTegic.value.DoubleValue
0.341

@<SCITEGIC>MOL_PROPERTY
Angle
SciTegic.value.DoubleValue
2.097

@<SCITEGIC>MOL_PROPERTY
Pdih
SciTegic.value.DoubleValue
5.128

@<SCITEGIC>MOL_PROPERTY
Idih
SciTegic.value.DoubleValue
0.000

@<SCITEGIC>MOL_PROPERTY
Tether
SciTegic.value.DoubleValue
0.000

@<TRIPOS>MOLECULE
guest-s15_vm2.mol2 : vm2 ligand conformer 156
          29          28           1
SMALL
USER_CHARGES
 
@<TRIPOS>ATOM
       1    C1      19.042877   18.901474   19.535953 C.3        1 MOL1        -0.2426
       2    H1      18.134114   18.614916   20.079460 H          1 MOL1         0.0959
       3    H2      18.954807   19.957533   19.249596 H          1 MOL1         0.0959
       4    H3      19.077348   18.305614   18.614715 H          1 MOL1         0.0959
       5    C2      20.312296   18.659597   20.383746 C.3        1 MOL1        -0.1410
       6    H4      21.195928   18.839122   19.755475 H          1 MOL1         0.0948
       7    H5      20.359504   17.604058   20.685915 H          1 MOL1         0.0948
       8    C3      20.401391   19.566521   21.634955 C.3        1 MOL1        -0.1435
       9    H6      21.383970   19.412274   22.097890 H          1 MOL1         0.0948
      10    H7      20.370193   20.620123   21.325218 H          1 MOL1         0.0948
      11    C4      19.282107   19.295188   22.672800 C.3        1 MOL1        -0.1435
      12    H8      19.268772   18.229968   22.931596 H          1 MOL1         0.0948
      13    H9      18.309148   19.510662   22.212575 H          1 MOL1         0.0948
      14    C5      19.407682   20.165638   23.950563 C.3        1 MOL1        -0.1435
      15    H10     19.544717   21.210913   23.640948 H          1 MOL1         0.0948
      16    H11     18.454872   20.147550   24.494937 H          1 MOL1         0.0948
      17    C6      20.571758   19.769655   24.905407 C.3        1 MOL1        -0.1500
      18    H12     20.974442   20.687283   25.353895 H          1 MOL1         0.0948
      19    H13     21.405150   19.337580   24.339447 H          1 MOL1         0.0948
      20    C7      20.201401   18.811585   26.064627 C.3        1 MOL1         0.1162
      21    H14     21.117996   18.626315   26.633168 H          1 MOL1         0.0910
      22    C8      19.681626   17.451614   25.571583 C.3        1 MOL1        -0.2491
      23    H15     19.575671   16.754540   26.411796 H          1 MOL1         0.0959
      24    H16     18.700750   17.546697   25.090927 H          1 MOL1         0.0959
      25    H17     20.380231   17.003895   24.853957 H          1 MOL1         0.0959
      26    N1      19.234863   19.434728   27.034365 N.4        1 MOL1        -0.5987
      27    H18     19.050711   18.815233   27.828665 H          1 MOL1         0.3605
      28    H19     18.337098   19.636060   26.587408 H          1 MOL1         0.3605
      29    H20     19.596301   20.315804   27.410845 H          1 MOL1         0.3605
@<TRIPOS>BOND
    1     1     2    1
    2     1     3    1
    3     1     4    1
    4     1     5    1
    5     5     6    1
    6     5     7    1
    7     5     8    1
    8     8     9    1
    9     8    10    1
   10     8    11    1
   11    11    12    1
   12    11    13    1
   13    11    14    1
   14    14    15    1
   15    14    16    1
   16    14    17    1
   17    17    18    1
   18    17    19    1
   19    17    20    1
   20    20    21    1
   21    20    22    1
   22    22    23    1
   23    22    24    1
   24    22    25    1
   25    20    26    1
   26    26    27    1
   27    26    28    1
   28    26    29    1
@<TRIPOS>SUBSTRUCTURE
       1 MOL1            1 RESIDUE      1      MOL     
@<SCITEGIC>MOL_PROPERTY
VM2 Rank
SciTegic.value.IntegerValue
156

@<SCITEGIC>MOL_PROPERTY
Conf_Id
SciTegic.value.IntegerValue
870

@<SCITEGIC>MOL_PROPERTY
Probability
SciTegic.value.DoubleValue
0.00

@<SCITEGIC>MOL_PROPERTY
Sum Probability
SciTegic.value.DoubleValue
99.97

@<SCITEGIC>MOL_PROPERTY
Delta G
SciTegic.value.DoubleValue
4.849

@<SCITEGIC>MOL_PROPERTY
G
SciTegic.value.DoubleValue
38.551

@<SCITEGIC>MOL_PROPERTY
E
SciTegic.value.DoubleValue
0.641

@<SCITEGIC>MOL_PROPERTY
-TS
SciTegic.value.DoubleValue
37.910

@<SCITEGIC>MOL_PROPERTY
U+W
SciTegic.value.DoubleValue
-23.504

@<SCITEGIC>MOL_PROPERTY
U
SciTegic.value.DoubleValue
28.853

@<SCITEGIC>MOL_PROPERTY
W
SciTegic.value.DoubleValue
-52.356

@<SCITEGIC>MOL_PROPERTY
W(PB)
SciTegic.value.DoubleValue
-54.783

@<SCITEGIC>MOL_PROPERTY
W(SA)
SciTegic.value.DoubleValue
2.427

@<SCITEGIC>MOL_PROPERTY
Valence
SciTegic.value.DoubleValue
7.578

@<SCITEGIC>MOL_PROPERTY
Coulomb
SciTegic.value.DoubleValue
19.889

@<SCITEGIC>MOL_PROPERTY
VdW
SciTegic.value.DoubleValue
1.385

@<SCITEGIC>MOL_PROPERTY
VdW6
SciTegic.value.DoubleValue
-10.700

@<SCITEGIC>MOL_PROPERTY
VdW12
SciTegic.value.DoubleValue
12.085

@<SCITEGIC>MOL_PROPERTY
Bond
SciTegic.value.DoubleValue
0.383

@<SCITEGIC>MOL_PROPERTY
Angle
SciTegic.value.DoubleValue
2.315

@<SCITEGIC>MOL_PROPERTY
Pdih
SciTegic.value.DoubleValue
4.881

@<SCITEGIC>MOL_PROPERTY
Idih
SciTegic.value.DoubleValue
0.000

@<SCITEGIC>MOL_PROPERTY
Tether
SciTegic.value.DoubleValue
0.000

@<TRIPOS>MOLECULE
guest-s15_vm2.mol2 : vm2 ligand conformer 157
          29          28           1
SMALL
USER_CHARGES
 
@<TRIPOS>ATOM
       1    C1      20.548078   20.444258   20.700000 C.3        1 MOL1        -0.2426
       2    H1      20.580920   21.537439   20.607018 H          1 MOL1         0.0959
       3    H2      21.314945   20.149577   21.426202 H          1 MOL1         0.0959
       4    H3      20.819506   20.016579   19.726181 H          1 MOL1         0.0959
       5    C2      19.138987   19.979563   21.133536 C.3        1 MOL1        -0.1410
       6    H4      18.407491   20.360382   20.407268 H          1 MOL1         0.0948
       7    H5      18.865991   20.433262   22.094559 H          1 MOL1         0.0948
       8    C3      18.998733   18.439638   21.208332 C.3        1 MOL1        -0.1435
       9    H6      17.949479   18.190491   21.418174 H          1 MOL1         0.0948
      10    H7      19.209772   18.020715   20.214819 H          1 MOL1         0.0948
      11    C4      19.901523   17.723310   22.248750 C.3        1 MOL1        -0.1435
      12    H8      20.963183   17.889970   22.023991 H          1 MOL1         0.0948
      13    H9      19.745815   16.643046   22.121915 H          1 MOL1         0.0948
      14    C5      19.593349   18.075466   23.727943 C.3        1 MOL1        -0.1435
      15    H10     18.534325   18.345132   23.831531 H          1 MOL1         0.0948
      16    H11     19.736040   17.165660   24.325543 H          1 MOL1         0.0948
      17    C6      20.507501   19.192494   24.302642 C.3        1 MOL1        -0.1500
      18    H12     20.438448   20.091645   23.681922 H          1 MOL1         0.0948
      19    H13     21.554507   18.867726   24.241209 H          1 MOL1         0.0948
      20    C7      20.199702   19.596015   25.763899 C.3        1 MOL1         0.1162
      21    H14     20.893243   20.399051   26.032011 H          1 MOL1         0.0910
      22    C8      20.429898   18.435998   26.748138 C.3        1 MOL1        -0.2491
      23    H15     20.340416   18.788247   27.783076 H          1 MOL1         0.0959
      24    H16     19.699444   17.630957   26.604740 H          1 MOL1         0.0959
      25    H17     21.435465   18.014697   26.626071 H          1 MOL1         0.0959
      26    N1      18.818227   20.169258   25.920760 N.4        1 MOL1        -0.5987
      27    H18     18.673126   20.973398   25.303720 H          1 MOL1         0.3605
      28    H19     18.651567   20.485210   26.880477 H          1 MOL1         0.3605
      29    H20     18.101341   19.474566   25.697180 H          1 MOL1         0.3605
@<TRIPOS>BOND
    1     1     2    1
    2     1     3    1
    3     1     4    1
    4     1     5    1
    5     5     6    1
    6     5     7    1
    7     5     8    1
    8     8     9    1
    9     8    10    1
   10     8    11    1
   11    11    12    1
   12    11    13    1
   13    11    14    1
   14    14    15    1
   15    14    16    1
   16    14    17    1
   17    17    18    1
   18    17    19    1
   19    17    20    1
   20    20    21    1
   21    20    22    1
   22    22    23    1
   23    22    24    1
   24    22    25    1
   25    20    26    1
   26    26    27    1
   27    26    28    1
   28    26    29    1
@<TRIPOS>SUBSTRUCTURE
       1 MOL1            1 RESIDUE      1      MOL     
@<SCITEGIC>MOL_PROPERTY
VM2 Rank
SciTegic.value.IntegerValue
157

@<SCITEGIC>MOL_PROPERTY
Conf_Id
SciTegic.value.IntegerValue
316

@<SCITEGIC>MOL_PROPERTY
Probability
SciTegic.value.DoubleValue
0.00

@<SCITEGIC>MOL_PROPERTY
Sum Probability
SciTegic.value.DoubleValue
99.98

@<SCITEGIC>MOL_PROPERTY
Delta G
SciTegic.value.DoubleValue
4.934

@<SCITEGIC>MOL_PROPERTY
G
SciTegic.value.DoubleValue
38.636

@<SCITEGIC>MOL_PROPERTY
E
SciTegic.value.DoubleValue
0.284

@<SCITEGIC>MOL_PROPERTY
-TS
SciTegic.value.DoubleValue
38.352

@<SCITEGIC>MOL_PROPERTY
U+W
SciTegic.value.DoubleValue
-23.860

@<SCITEGIC>MOL_PROPERTY
U
SciTegic.value.DoubleValue
28.974

@<SCITEGIC>MOL_PROPERTY
W
SciTegic.value.DoubleValue
-52.834

@<SCITEGIC>MOL_PROPERTY
W(PB)
SciTegic.value.DoubleValue
-55.217

@<SCITEGIC>MOL_PROPERTY
W(SA)
SciTegic.value.DoubleValue
2.383

@<SCITEGIC>MOL_PROPERTY
Valence
SciTegic.value.DoubleValue
7.347

@<SCITEGIC>MOL_PROPERTY
Coulomb
SciTegic.value.DoubleValue
20.625

@<SCITEGIC>MOL_PROPERTY
VdW
SciTegic.value.DoubleValue
1.002

@<SCITEGIC>MOL_PROPERTY
VdW6
SciTegic.value.DoubleValue
-11.327

@<SCITEGIC>MOL_PROPERTY
VdW12
SciTegic.value.DoubleValue
12.328

@<SCITEGIC>MOL_PROPERTY
Bond
SciTegic.value.DoubleValue
0.364

@<SCITEGIC>MOL_PROPERTY
Angle
SciTegic.value.DoubleValue
2.515

@<SCITEGIC>MOL_PROPERTY
Pdih
SciTegic.value.DoubleValue
4.468

@<SCITEGIC>MOL_PROPERTY
Idih
SciTegic.value.DoubleValue
0.000

@<SCITEGIC>MOL_PROPERTY
Tether
SciTegic.value.DoubleValue
0.000

@<TRIPOS>MOLECULE
guest-s15_vm2.mol2 : vm2 ligand conformer 158
          29          28           1
SMALL
USER_CHARGES
 
@<TRIPOS>ATOM
       1    C1      19.494418   19.516319   19.142167 C.3        1 MOL1        -0.2426
       2    H1      18.756417   18.763184   18.836605 H          1 MOL1         0.0959
       3    H2      19.003182   20.498110   19.137824 H          1 MOL1         0.0959
       4    H3      20.290163   19.534080   18.386182 H          1 MOL1         0.0959
       5    C2      20.073859   19.192846   20.535626 C.3        1 MOL1        -0.1410
       6    H4      20.836084   19.942253   20.785240 H          1 MOL1         0.0948
       7    H5      20.583008   18.219608   20.500722 H          1 MOL1         0.0948
       8    C3      18.969508   19.166177   21.619019 C.3        1 MOL1        -0.1435
       9    H6      18.495754   20.154828   21.692059 H          1 MOL1         0.0948
      10    H7      18.180878   18.470022   21.301512 H          1 MOL1         0.0948
      11    C4      19.475102   18.725614   23.015035 C.3        1 MOL1        -0.1435
      12    H8      19.981755   17.754158   22.933364 H          1 MOL1         0.0948
      13    H9      18.594934   18.570903   23.649665 H          1 MOL1         0.0948
      14    C5      20.414646   19.757204   23.687534 C.3        1 MOL1        -0.1435
      15    H10     21.239608   19.992732   23.003862 H          1 MOL1         0.0948
      16    H11     19.876352   20.702534   23.837591 H          1 MOL1         0.0948
      17    C6      21.051227   19.288270   25.027085 C.3        1 MOL1        -0.1500
      18    H12     21.727585   20.085655   25.361754 H          1 MOL1         0.0948
      19    H13     21.699183   18.421279   24.842384 H          1 MOL1         0.0948
      20    C7      20.093284   18.978125   26.206656 C.3        1 MOL1         0.1162
      21    H14     20.667600   19.135144   27.124934 H          1 MOL1         0.0910
      22    C8      19.637092   17.507379   26.229642 C.3        1 MOL1        -0.2491
      23    H15     19.058820   17.301831   27.138770 H          1 MOL1         0.0959
      24    H16     19.009721   17.248479   25.371783 H          1 MOL1         0.0959
      25    H17     20.502444   16.833160   26.232449 H          1 MOL1         0.0959
      26    N1      18.926862   19.924066   26.291236 N.4        1 MOL1        -0.5987
      27    H18     18.335973   19.854539   25.459074 H          1 MOL1         0.3605
      28    H19     19.240155   20.896064   26.366848 H          1 MOL1         0.3605
      29    H20     18.340990   19.725602   27.107333 H          1 MOL1         0.3605
@<TRIPOS>BOND
    1     1     2    1
    2     1     3    1
    3     1     4    1
    4     1     5    1
    5     5     6    1
    6     5     7    1
    7     5     8    1
    8     8     9    1
    9     8    10    1
   10     8    11    1
   11    11    12    1
   12    11    13    1
   13    11    14    1
   14    14    15    1
   15    14    16    1
   16    14    17    1
   17    17    18    1
   18    17    19    1
   19    17    20    1
   20    20    21    1
   21    20    22    1
   22    22    23    1
   23    22    24    1
   24    22    25    1
   25    20    26    1
   26    26    27    1
   27    26    28    1
   28    26    29    1
@<TRIPOS>SUBSTRUCTURE
       1 MOL1            1 RESIDUE      1      MOL     
@<SCITEGIC>MOL_PROPERTY
VM2 Rank
SciTegic.value.IntegerValue
158

@<SCITEGIC>MOL_PROPERTY
Conf_Id
SciTegic.value.IntegerValue
314

@<SCITEGIC>MOL_PROPERTY
Probability
SciTegic.value.DoubleValue
0.00

@<SCITEGIC>MOL_PROPERTY
Sum Probability
SciTegic.value.DoubleValue
99.98

@<SCITEGIC>MOL_PROPERTY
Delta G
SciTegic.value.DoubleValue
5.031

@<SCITEGIC>MOL_PROPERTY
G
SciTegic.value.DoubleValue
38.733

@<SCITEGIC>MOL_PROPERTY
E
SciTegic.value.DoubleValue
0.814

@<SCITEGIC>MOL_PROPERTY
-TS
SciTegic.value.DoubleValue
37.919

@<SCITEGIC>MOL_PROPERTY
U+W
SciTegic.value.DoubleValue
-23.330

@<SCITEGIC>MOL_PROPERTY
U
SciTegic.value.DoubleValue
28.836

@<SCITEGIC>MOL_PROPERTY
W
SciTegic.value.DoubleValue
-52.166

@<SCITEGIC>MOL_PROPERTY
W(PB)
SciTegic.value.DoubleValue
-54.631

@<SCITEGIC>MOL_PROPERTY
W(SA)
SciTegic.value.DoubleValue
2.465

@<SCITEGIC>MOL_PROPERTY
Valence
SciTegic.value.DoubleValue
6.993

@<SCITEGIC>MOL_PROPERTY
Coulomb
SciTegic.value.DoubleValue
20.553

@<SCITEGIC>MOL_PROPERTY
VdW
SciTegic.value.DoubleValue
1.290

@<SCITEGIC>MOL_PROPERTY
VdW6
SciTegic.value.DoubleValue
-10.457

@<SCITEGIC>MOL_PROPERTY
VdW12
SciTegic.value.DoubleValue
11.747

@<SCITEGIC>MOL_PROPERTY
Bond
SciTegic.value.DoubleValue
0.348

@<SCITEGIC>MOL_PROPERTY
Angle
SciTegic.value.DoubleValue
2.717

@<SCITEGIC>MOL_PROPERTY
Pdih
SciTegic.value.DoubleValue
3.927

@<SCITEGIC>MOL_PROPERTY
Idih
SciTegic.value.DoubleValue
0.000

@<SCITEGIC>MOL_PROPERTY
Tether
SciTegic.value.DoubleValue
0.000

@<TRIPOS>MOLECULE
guest-s15_vm2.mol2 : vm2 ligand conformer 159
          29          28           1
SMALL
USER_CHARGES
 
@<TRIPOS>ATOM
       1    C1      19.648210   20.468856   19.892115 C.3        1 MOL1        -0.2426
       2    H1      20.364308   20.496685   19.060596 H          1 MOL1         0.0959
       3    H2      18.641600   20.365361   19.466422 H          1 MOL1         0.0959
       4    H3      19.701141   21.432644   20.415084 H          1 MOL1         0.0959
       5    C2      19.969252   19.300953   20.848509 C.3        1 MOL1        -0.1410
       6    H4      20.995106   19.418241   21.222282 H          1 MOL1         0.0948
       7    H5      19.938763   18.354284   20.291309 H          1 MOL1         0.0948
       8    C3      18.974650   19.243282   22.031357 C.3        1 MOL1        -0.1435
       9    H6      19.035071   20.176599   22.604126 H          1 MOL1         0.0948
      10    H7      17.951657   19.197246   21.633077 H          1 MOL1         0.0948
      11    C4      19.192038   18.021520   22.961727 C.3        1 MOL1        -0.1435
      12    H8      19.056872   17.105262   22.370558 H          1 MOL1         0.0948
      13    H9      18.399776   17.991488   23.719270 H          1 MOL1         0.0948
      14    C5      20.579279   17.954246   23.654306 C.3        1 MOL1        -0.1435
      15    H10     20.624089   17.044860   24.267844 H          1 MOL1         0.0948
      16    H11     21.350083   17.810061   22.885924 H          1 MOL1         0.0948
      17    C6      20.978446   19.184319   24.521005 C.3        1 MOL1        -0.1500
      18    H12     21.039177   20.080273   23.890609 H          1 MOL1         0.0948
      19    H13     22.003277   19.017128   24.877568 H          1 MOL1         0.0948
      20    C7      20.103299   19.492215   25.763384 C.3        1 MOL1         0.1162
      21    H14     20.642416   20.240321   26.352739 H          1 MOL1         0.0910
      22    C8      19.903791   18.259391   26.661873 C.3        1 MOL1        -0.2491
      23    H15     19.279158   17.500879   26.175090 H          1 MOL1         0.0959
      24    H16     20.868377   17.801954   26.914594 H          1 MOL1         0.0959
      25    H17     19.414168   18.544166   27.601163 H          1 MOL1         0.0959
      26    N1      18.787035   20.131218   25.419725 N.4        1 MOL1        -0.5987
      27    H18     18.920147   21.010891   24.913124 H          1 MOL1         0.3605
      28    H19     18.243089   20.341530   26.261559 H          1 MOL1         0.3605
      29    H20     18.222939   19.515804   24.829501 H          1 MOL1         0.3605
@<TRIPOS>BOND
    1     1     2    1
    2     1     3    1
    3     1     4    1
    4     1     5    1
    5     5     6    1
    6     5     7    1
    7     5     8    1
    8     8     9    1
    9     8    10    1
   10     8    11    1
   11    11    12    1
   12    11    13    1
   13    11    14    1
   14    14    15    1
   15    14    16    1
   16    14    17    1
   17    17    18    1
   18    17    19    1
   19    17    20    1
   20    20    21    1
   21    20    22    1
   22    22    23    1
   23    22    24    1
   24    22    25    1
   25    20    26    1
   26    26    27    1
   27    26    28    1
   28    26    29    1
@<TRIPOS>SUBSTRUCTURE
       1 MOL1            1 RESIDUE      1      MOL     
@<SCITEGIC>MOL_PROPERTY
VM2 Rank
SciTegic.value.IntegerValue
159

@<SCITEGIC>MOL_PROPERTY
Conf_Id
SciTegic.value.IntegerValue
297

@<SCITEGIC>MOL_PROPERTY
Probability
SciTegic.value.DoubleValue
0.00

@<SCITEGIC>MOL_PROPERTY
Sum Probability
SciTegic.value.DoubleValue
99.98

@<SCITEGIC>MOL_PROPERTY
Delta G
SciTegic.value.DoubleValue
5.045

@<SCITEGIC>MOL_PROPERTY
G
SciTegic.value.DoubleValue
38.747

@<SCITEGIC>MOL_PROPERTY
E
SciTegic.value.DoubleValue
0.098

@<SCITEGIC>MOL_PROPERTY
-TS
SciTegic.value.DoubleValue
38.649

@<SCITEGIC>MOL_PROPERTY
U+W
SciTegic.value.DoubleValue
-24.047

@<SCITEGIC>MOL_PROPERTY
U
SciTegic.value.DoubleValue
28.518

@<SCITEGIC>MOL_PROPERTY
W
SciTegic.value.DoubleValue
-52.565

@<SCITEGIC>MOL_PROPERTY
W(PB)
SciTegic.value.DoubleValue
-54.941

@<SCITEGIC>MOL_PROPERTY
W(SA)
SciTegic.value.DoubleValue
2.376

@<SCITEGIC>MOL_PROPERTY
Valence
SciTegic.value.DoubleValue
6.049

@<SCITEGIC>MOL_PROPERTY
Coulomb
SciTegic.value.DoubleValue
21.789

@<SCITEGIC>MOL_PROPERTY
VdW
SciTegic.value.DoubleValue
0.681

@<SCITEGIC>MOL_PROPERTY
VdW6
SciTegic.value.DoubleValue
-12.165

@<SCITEGIC>MOL_PROPERTY
VdW12
SciTegic.value.DoubleValue
12.846

@<SCITEGIC>MOL_PROPERTY
Bond
SciTegic.value.DoubleValue
0.399

@<SCITEGIC>MOL_PROPERTY
Angle
SciTegic.value.DoubleValue
2.964

@<SCITEGIC>MOL_PROPERTY
Pdih
SciTegic.value.DoubleValue
2.686

@<SCITEGIC>MOL_PROPERTY
Idih
SciTegic.value.DoubleValue
0.000

@<SCITEGIC>MOL_PROPERTY
Tether
SciTegic.value.DoubleValue
0.000

@<TRIPOS>MOLECULE
guest-s15_vm2.mol2 : vm2 ligand conformer 160
          29          28           1
SMALL
USER_CHARGES
 
@<TRIPOS>ATOM
       1    C1      18.298997   18.535158   20.714984 C.3        1 MOL1        -0.2426
       2    H1      17.734004   19.300204   21.261532 H          1 MOL1         0.0959
       3    H2      17.816839   18.404666   19.737546 H          1 MOL1         0.0959
       4    H3      18.212490   17.586712   21.260738 H          1 MOL1         0.0959
       5    C2      19.779712   18.940677   20.536899 C.3        1 MOL1        -0.1410
       6    H4      19.839637   19.901969   20.007764 H          1 MOL1         0.0948
       7    H5      20.273219   18.202169   19.889790 H          1 MOL1         0.0948
       8    C3      20.555885   19.027883   21.872621 C.3        1 MOL1        -0.1435
       9    H6      20.497715   18.059268   22.384538 H          1 MOL1         0.0948
      10    H7      21.618524   19.195210   21.649522 H          1 MOL1         0.0948
      11    C4      20.053041   20.161856   22.801441 C.3        1 MOL1        -0.1435
      12    H8      19.006112   20.002519   23.080067 H          1 MOL1         0.0948
      13    H9      20.068904   21.106775   22.241137 H          1 MOL1         0.0948
      14    C5      20.915627   20.341233   24.075369 C.3        1 MOL1        -0.1435
      15    H10     21.931163   20.621407   23.763336 H          1 MOL1         0.0948
      16    H11     20.541432   21.205570   24.639856 H          1 MOL1         0.0948
      17    C6      21.025962   19.109952   25.022896 C.3        1 MOL1        -0.1500
      18    H12     21.720668   19.386574   25.826652 H          1 MOL1         0.0948
      19    H13     21.514810   18.275150   24.505100 H          1 MOL1         0.0948
      20    C7      19.724360   18.613827   25.705787 C.3        1 MOL1         0.1162
      21    H14     20.032084   18.085817   26.613643 H          1 MOL1         0.0910
      22    C8      18.948790   17.592008   24.854787 C.3        1 MOL1        -0.2491
      23    H15     19.601684   16.766378   24.546161 H          1 MOL1         0.0959
      24    H16     18.126088   17.159301   25.437012 H          1 MOL1         0.0959
      25    H17     18.515941   18.039719   23.955658 H          1 MOL1         0.0959
      26    N1      18.833625   19.733406   26.169216 N.4        1 MOL1        -0.5987
      27    H18     18.011975   19.377829   26.666214 H          1 MOL1         0.3605
      28    H19     18.501786   20.289948   25.377636 H          1 MOL1         0.3605
      29    H20     19.328531   20.365001   26.805402 H          1 MOL1         0.3605
@<TRIPOS>BOND
    1     1     2    1
    2     1     3    1
    3     1     4    1
    4     1     5    1
    5     5     6    1
    6     5     7    1
    7     5     8    1
    8     8     9    1
    9     8    10    1
   10     8    11    1
   11    11    12    1
   12    11    13    1
   13    11    14    1
   14    14    15    1
   15    14    16    1
   16    14    17    1
   17    17    18    1
   18    17    19    1
   19    17    20    1
   20    20    21    1
   21    20    22    1
   22    22    23    1
   23    22    24    1
   24    22    25    1
   25    20    26    1
   26    26    27    1
   27    26    28    1
   28    26    29    1
@<TRIPOS>SUBSTRUCTURE
       1 MOL1            1 RESIDUE      1      MOL     
@<SCITEGIC>MOL_PROPERTY
VM2 Rank
SciTegic.value.IntegerValue
160

@<SCITEGIC>MOL_PROPERTY
Conf_Id
SciTegic.value.IntegerValue
1370

@<SCITEGIC>MOL_PROPERTY
Probability
SciTegic.value.DoubleValue
0.00

@<SCITEGIC>MOL_PROPERTY
Sum Probability
SciTegic.value.DoubleValue
99.98

@<SCITEGIC>MOL_PROPERTY
Delta G
SciTegic.value.DoubleValue
5.120

@<SCITEGIC>MOL_PROPERTY
G
SciTegic.value.DoubleValue
38.822

@<SCITEGIC>MOL_PROPERTY
E
SciTegic.value.DoubleValue
0.158

@<SCITEGIC>MOL_PROPERTY
-TS
SciTegic.value.DoubleValue
38.664

@<SCITEGIC>MOL_PROPERTY
U+W
SciTegic.value.DoubleValue
-23.987

@<SCITEGIC>MOL_PROPERTY
U
SciTegic.value.DoubleValue
28.728

@<SCITEGIC>MOL_PROPERTY
W
SciTegic.value.DoubleValue
-52.715

@<SCITEGIC>MOL_PROPERTY
W(PB)
SciTegic.value.DoubleValue
-55.059

@<SCITEGIC>MOL_PROPERTY
W(SA)
SciTegic.value.DoubleValue
2.345

@<SCITEGIC>MOL_PROPERTY
Valence
SciTegic.value.DoubleValue
7.346

@<SCITEGIC>MOL_PROPERTY
Coulomb
SciTegic.value.DoubleValue
20.700

@<SCITEGIC>MOL_PROPERTY
VdW
SciTegic.value.DoubleValue
0.681

@<SCITEGIC>MOL_PROPERTY
VdW6
SciTegic.value.DoubleValue
-12.200

@<SCITEGIC>MOL_PROPERTY
VdW12
SciTegic.value.DoubleValue
12.882

@<SCITEGIC>MOL_PROPERTY
Bond
SciTegic.value.DoubleValue
0.393

@<SCITEGIC>MOL_PROPERTY
Angle
SciTegic.value.DoubleValue
3.198

@<SCITEGIC>MOL_PROPERTY
Pdih
SciTegic.value.DoubleValue
3.755

@<SCITEGIC>MOL_PROPERTY
Idih
SciTegic.value.DoubleValue
0.000

@<SCITEGIC>MOL_PROPERTY
Tether
SciTegic.value.DoubleValue
0.000

@<TRIPOS>MOLECULE
guest-s15_vm2.mol2 : vm2 ligand conformer 161
          29          28           1
SMALL
USER_CHARGES
 
@<TRIPOS>ATOM
       1    C1      19.930398   19.216308   19.792554 C.3        1 MOL1        -0.2426
       2    H1      19.451615   20.107381   19.366337 H          1 MOL1         0.0959
       3    H2      20.947824   19.486751   20.101124 H          1 MOL1         0.0959
       4    H3      20.014979   18.466320   18.995581 H          1 MOL1         0.0959
       5    C2      19.109288   18.657723   20.976493 C.3        1 MOL1        -0.1410
       6    H4      19.616411   17.778905   21.396563 H          1 MOL1         0.0948
       7    H5      18.143657   18.295822   20.596855 H          1 MOL1         0.0948
       8    C3      18.841756   19.704104   22.087865 C.3        1 MOL1        -0.1435
       9    H6      18.256405   20.530208   21.661223 H          1 MOL1         0.0948
      10    H7      18.197582   19.249236   22.850538 H          1 MOL1         0.0948
      11    C4      20.113851   20.291660   22.757042 C.3        1 MOL1        -0.1435
      12    H8      19.821852   21.034146   23.508948 H          1 MOL1         0.0948
      13    H9      20.677498   20.863904   22.008261 H          1 MOL1         0.0948
      14    C5      21.068678   19.247241   23.394683 C.3        1 MOL1        -0.1435
      15    H10     21.508625   18.639422   22.592825 H          1 MOL1         0.0948
      16    H11     21.914493   19.778140   23.852796 H          1 MOL1         0.0948
      17    C6      20.448083   18.290503   24.449751 C.3        1 MOL1        -0.1500
      18    H12     21.214891   17.542144   24.690259 H          1 MOL1         0.0948
      19    H13     19.611302   17.725457   24.020532 H          1 MOL1         0.0948
      20    C7      20.011547   18.976311   25.765815 C.3        1 MOL1         0.1162
      21    H14     20.780619   19.702686   26.045736 H          1 MOL1         0.0910
      22    C8      19.893724   17.940270   26.895738 C.3        1 MOL1        -0.2491
      23    H15     19.143005   17.176496   26.656881 H          1 MOL1         0.0959
      24    H16     20.853092   17.435639   27.065168 H          1 MOL1         0.0959
      25    H17     19.603205   18.423083   27.836997 H          1 MOL1         0.0959
      26    N1      18.718674   19.731880   25.634060 N.4        1 MOL1        -0.5987
      27    H18     18.766866   20.417755   24.876941 H          1 MOL1         0.3605
      28    H19     18.489597   20.234433   26.496485 H          1 MOL1         0.3605
      29    H20     17.939817   19.100086   25.430840 H          1 MOL1         0.3605
@<TRIPOS>BOND
    1     1     2    1
    2     1     3    1
    3     1     4    1
    4     1     5    1
    5     5     6    1
    6     5     7    1
    7     5     8    1
    8     8     9    1
    9     8    10    1
   10     8    11    1
   11    11    12    1
   12    11    13    1
   13    11    14    1
   14    14    15    1
   15    14    16    1
   16    14    17    1
   17    17    18    1
   18    17    19    1
   19    17    20    1
   20    20    21    1
   21    20    22    1
   22    22    23    1
   23    22    24    1
   24    22    25    1
   25    20    26    1
   26    26    27    1
   27    26    28    1
   28    26    29    1
@<TRIPOS>SUBSTRUCTURE
       1 MOL1            1 RESIDUE      1      MOL     
@<SCITEGIC>MOL_PROPERTY
VM2 Rank
SciTegic.value.IntegerValue
161

@<SCITEGIC>MOL_PROPERTY
Conf_Id
SciTegic.value.IntegerValue
604

@<SCITEGIC>MOL_PROPERTY
Probability
SciTegic.value.DoubleValue
0.00

@<SCITEGIC>MOL_PROPERTY
Sum Probability
SciTegic.value.DoubleValue
99.98

@<SCITEGIC>MOL_PROPERTY
Delta G
SciTegic.value.DoubleValue
5.197

@<SCITEGIC>MOL_PROPERTY
G
SciTegic.value.DoubleValue
38.899

@<SCITEGIC>MOL_PROPERTY
E
SciTegic.value.DoubleValue
0.347

@<SCITEGIC>MOL_PROPERTY
-TS
SciTegic.value.DoubleValue
38.552

@<SCITEGIC>MOL_PROPERTY
U+W
SciTegic.value.DoubleValue
-23.798

@<SCITEGIC>MOL_PROPERTY
U
SciTegic.value.DoubleValue
28.626

@<SCITEGIC>MOL_PROPERTY
W
SciTegic.value.DoubleValue
-52.424

@<SCITEGIC>MOL_PROPERTY
W(PB)
SciTegic.value.DoubleValue
-54.799

@<SCITEGIC>MOL_PROPERTY
W(SA)
SciTegic.value.DoubleValue
2.375

@<SCITEGIC>MOL_PROPERTY
Valence
SciTegic.value.DoubleValue
6.309

@<SCITEGIC>MOL_PROPERTY
Coulomb
SciTegic.value.DoubleValue
21.583

@<SCITEGIC>MOL_PROPERTY
VdW
SciTegic.value.DoubleValue
0.734

@<SCITEGIC>MOL_PROPERTY
VdW6
SciTegic.value.DoubleValue
-12.082

@<SCITEGIC>MOL_PROPERTY
VdW12
SciTegic.value.DoubleValue
12.816

@<SCITEGIC>MOL_PROPERTY
Bond
SciTegic.value.DoubleValue
0.385

@<SCITEGIC>MOL_PROPERTY
Angle
SciTegic.value.DoubleValue
2.789

@<SCITEGIC>MOL_PROPERTY
Pdih
SciTegic.value.DoubleValue
3.135

@<SCITEGIC>MOL_PROPERTY
Idih
SciTegic.value.DoubleValue
0.000

@<SCITEGIC>MOL_PROPERTY
Tether
SciTegic.value.DoubleValue
0.000

@<TRIPOS>MOLECULE
guest-s15_vm2.mol2 : vm2 ligand conformer 162
          29          28           1
SMALL
USER_CHARGES
 
@<TRIPOS>ATOM
       1    C1      20.674074   18.724826   19.778252 C.3        1 MOL1        -0.2426
       2    H1      21.526202   18.179538   20.204549 H          1 MOL1         0.0959
       3    H2      20.019057   17.999339   19.278438 H          1 MOL1         0.0959
       4    H3      21.061187   19.411381   19.014196 H          1 MOL1         0.0959
       5    C2      19.910133   19.501304   20.871506 C.3        1 MOL1        -0.1410
       6    H4      19.083080   20.060079   20.411811 H          1 MOL1         0.0948
       7    H5      20.585199   20.242153   21.320110 H          1 MOL1         0.0948
       8    C3      19.357897   18.554329   21.962442 C.3        1 MOL1        -0.1435
       9    H6      18.742210   17.780451   21.483814 H          1 MOL1         0.0948
      10    H7      20.189273   18.024060   22.443069 H          1 MOL1         0.0948
      11    C4      18.492901   19.275689   23.028478 C.3        1 MOL1        -0.1435
      12    H8      18.067775   18.535487   23.716363 H          1 MOL1         0.0948
      13    H9      17.627432   19.729278   22.526097 H          1 MOL1         0.0948
      14    C5      19.222215   20.380875   23.836421 C.3        1 MOL1        -0.1435
      15    H10     19.476367   21.201128   23.152212 H          1 MOL1         0.0948
      16    H11     18.514379   20.823697   24.549306 H          1 MOL1         0.0948
      17    C6      20.519957   19.957187   24.586055 C.3        1 MOL1        -0.1500
      18    H12     20.958751   20.871363   25.006586 H          1 MOL1         0.0948
      19    H13     21.267969   19.589281   23.872505 H          1 MOL1         0.0948
      20    C7      20.372774   18.951946   25.758447 C.3        1 MOL1         0.1162
      21    H14     21.246857   19.095111   26.401231 H          1 MOL1         0.0910
      22    C8      20.407834   17.482396   25.303005 C.3        1 MOL1        -0.2491
      23    H15     19.520296   17.203547   24.727618 H          1 MOL1         0.0959
      24    H16     21.293690   17.286095   24.686628 H          1 MOL1         0.0959
      25    H17     20.459649   16.816481   26.173045 H          1 MOL1         0.0959
      26    N1      19.178216   19.227448   26.629393 N.4        1 MOL1        -0.5987
      27    H18     19.198027   20.181920   26.999697 H          1 MOL1         0.3605
      28    H19     19.141039   18.588046   27.428329 H          1 MOL1         0.3605
      29    H20     18.307628   19.117997   26.103387 H          1 MOL1         0.3605
@<TRIPOS>BOND
    1     1     2    1
    2     1     3    1
    3     1     4    1
    4     1     5    1
    5     5     6    1
    6     5     7    1
    7     5     8    1
    8     8     9    1
    9     8    10    1
   10     8    11    1
   11    11    12    1
   12    11    13    1
   13    11    14    1
   14    14    15    1
   15    14    16    1
   16    14    17    1
   17    17    18    1
   18    17    19    1
   19    17    20    1
   20    20    21    1
   21    20    22    1
   22    22    23    1
   23    22    24    1
   24    22    25    1
   25    20    26    1
   26    26    27    1
   27    26    28    1
   28    26    29    1
@<TRIPOS>SUBSTRUCTURE
       1 MOL1            1 RESIDUE      1      MOL     
@<SCITEGIC>MOL_PROPERTY
VM2 Rank
SciTegic.value.IntegerValue
162

@<SCITEGIC>MOL_PROPERTY
Conf_Id
SciTegic.value.IntegerValue
286

@<SCITEGIC>MOL_PROPERTY
Probability
SciTegic.value.DoubleValue
0.00

@<SCITEGIC>MOL_PROPERTY
Sum Probability
SciTegic.value.DoubleValue
99.99

@<SCITEGIC>MOL_PROPERTY
Delta G
SciTegic.value.DoubleValue
5.237

@<SCITEGIC>MOL_PROPERTY
G
SciTegic.value.DoubleValue
38.939

@<SCITEGIC>MOL_PROPERTY
E
SciTegic.value.DoubleValue
0.259

@<SCITEGIC>MOL_PROPERTY
-TS
SciTegic.value.DoubleValue
38.679

@<SCITEGIC>MOL_PROPERTY
U+W
SciTegic.value.DoubleValue
-23.885

@<SCITEGIC>MOL_PROPERTY
U
SciTegic.value.DoubleValue
28.682

@<SCITEGIC>MOL_PROPERTY
W
SciTegic.value.DoubleValue
-52.568

@<SCITEGIC>MOL_PROPERTY
W(PB)
SciTegic.value.DoubleValue
-54.935

@<SCITEGIC>MOL_PROPERTY
W(SA)
SciTegic.value.DoubleValue
2.367

@<SCITEGIC>MOL_PROPERTY
Valence
SciTegic.value.DoubleValue
7.341

@<SCITEGIC>MOL_PROPERTY
Coulomb
SciTegic.value.DoubleValue
20.552

@<SCITEGIC>MOL_PROPERTY
VdW
SciTegic.value.DoubleValue
0.790

@<SCITEGIC>MOL_PROPERTY
VdW6
SciTegic.value.DoubleValue
-12.015

@<SCITEGIC>MOL_PROPERTY
VdW12
SciTegic.value.DoubleValue
12.806

@<SCITEGIC>MOL_PROPERTY
Bond
SciTegic.value.DoubleValue
0.401

@<SCITEGIC>MOL_PROPERTY
Angle
SciTegic.value.DoubleValue
3.356

@<SCITEGIC>MOL_PROPERTY
Pdih
SciTegic.value.DoubleValue
3.584

@<SCITEGIC>MOL_PROPERTY
Idih
SciTegic.value.DoubleValue
0.000

@<SCITEGIC>MOL_PROPERTY
Tether
SciTegic.value.DoubleValue
0.000

@<TRIPOS>MOLECULE
guest-s15_vm2.mol2 : vm2 ligand conformer 163
          29          28           1
SMALL
USER_CHARGES
 
@<TRIPOS>ATOM
       1    C1      20.015179   19.803134   19.791694 C.3        1 MOL1        -0.2426
       2    H1      20.917001   20.196153   20.277257 H          1 MOL1         0.0959
       3    H2      20.305557   18.946215   19.170181 H          1 MOL1         0.0959
       4    H3      19.629262   20.585924   19.126039 H          1 MOL1         0.0959
       5    C2      18.943994   19.397718   20.829180 C.3        1 MOL1        -0.1410
       6    H4      18.027514   19.108593   20.296267 H          1 MOL1         0.0948
       7    H5      18.672862   20.266635   21.443641 H          1 MOL1         0.0948
       8    C3      19.382019   18.218472   21.733892 C.3        1 MOL1        -0.1435
       9    H6      18.549011   17.947919   22.395176 H          1 MOL1         0.0948
      10    H7      19.550021   17.334627   21.103338 H          1 MOL1         0.0948
      11    C4      20.660513   18.468552   22.579944 C.3        1 MOL1        -0.1435
      12    H8      21.523875   18.531854   21.904269 H          1 MOL1         0.0948
      13    H9      20.845127   17.581731   23.196510 H          1 MOL1         0.0948
      14    C5      20.641648   19.743573   23.469810 C.3        1 MOL1        -0.1435
      15    H10     21.616219   19.855784   23.964408 H          1 MOL1         0.0948
      16    H11     20.553307   20.620678   22.815512 H          1 MOL1         0.0948
      17    C6      19.513006   19.808143   24.536755 C.3        1 MOL1        -0.1500
      18    H12     18.607112   19.302597   24.184093 H          1 MOL1         0.0948
      19    H13     19.231812   20.863203   24.651908 H          1 MOL1         0.0948
      20    C7      19.901541   19.283494   25.940028 C.3        1 MOL1         0.1162
      21    H14     20.767279   19.854028   26.290049 H          1 MOL1         0.0910
      22    C8      20.277839   17.792846   25.941573 C.3        1 MOL1        -0.2491
      23    H15     19.496606   17.183862   25.469913 H          1 MOL1         0.0959
      24    H16     21.221421   17.627625   25.409916 H          1 MOL1         0.0959
      25    H17     20.421157   17.430142   26.966852 H          1 MOL1         0.0959
      26    N1      18.800260   19.540067   26.931122 N.4        1 MOL1        -0.5987
      27    H18     17.946917   19.033355   26.680704 H          1 MOL1         0.3605
      28    H19     18.563932   20.535181   26.983210 H          1 MOL1         0.3605
      29    H20     19.068108   19.240933   27.873144 H          1 MOL1         0.3605
@<TRIPOS>BOND
    1     1     2    1
    2     1     3    1
    3     1     4    1
    4     1     5    1
    5     5     6    1
    6     5     7    1
    7     5     8    1
    8     8     9    1
    9     8    10    1
   10     8    11    1
   11    11    12    1
   12    11    13    1
   13    11    14    1
   14    14    15    1
   15    14    16    1
   16    14    17    1
   17    17    18    1
   18    17    19    1
   19    17    20    1
   20    20    21    1
   21    20    22    1
   22    22    23    1
   23    22    24    1
   24    22    25    1
   25    20    26    1
   26    26    27    1
   27    26    28    1
   28    26    29    1
@<TRIPOS>SUBSTRUCTURE
       1 MOL1            1 RESIDUE      1      MOL     
@<SCITEGIC>MOL_PROPERTY
VM2 Rank
SciTegic.value.IntegerValue
163

@<SCITEGIC>MOL_PROPERTY
Conf_Id
SciTegic.value.IntegerValue
962

@<SCITEGIC>MOL_PROPERTY
Probability
SciTegic.value.DoubleValue
0.00

@<SCITEGIC>MOL_PROPERTY
Sum Probability
SciTegic.value.DoubleValue
99.99

@<SCITEGIC>MOL_PROPERTY
Delta G
SciTegic.value.DoubleValue
5.287

@<SCITEGIC>MOL_PROPERTY
G
SciTegic.value.DoubleValue
38.989

@<SCITEGIC>MOL_PROPERTY
E
SciTegic.value.DoubleValue
0.820

@<SCITEGIC>MOL_PROPERTY
-TS
SciTegic.value.DoubleValue
38.169

@<SCITEGIC>MOL_PROPERTY
U+W
SciTegic.value.DoubleValue
-23.325

@<SCITEGIC>MOL_PROPERTY
U
SciTegic.value.DoubleValue
29.270

@<SCITEGIC>MOL_PROPERTY
W
SciTegic.value.DoubleValue
-52.595

@<SCITEGIC>MOL_PROPERTY
W(PB)
SciTegic.value.DoubleValue
-54.996

@<SCITEGIC>MOL_PROPERTY
W(SA)
SciTegic.value.DoubleValue
2.401

@<SCITEGIC>MOL_PROPERTY
Valence
SciTegic.value.DoubleValue
7.971

@<SCITEGIC>MOL_PROPERTY
Coulomb
SciTegic.value.DoubleValue
20.084

@<SCITEGIC>MOL_PROPERTY
VdW
SciTegic.value.DoubleValue
1.216

@<SCITEGIC>MOL_PROPERTY
VdW6
SciTegic.value.DoubleValue
-11.598

@<SCITEGIC>MOL_PROPERTY
VdW12
SciTegic.value.DoubleValue
12.814

@<SCITEGIC>MOL_PROPERTY
Bond
SciTegic.value.DoubleValue
0.421

@<SCITEGIC>MOL_PROPERTY
Angle
SciTegic.value.DoubleValue
3.122

@<SCITEGIC>MOL_PROPERTY
Pdih
SciTegic.value.DoubleValue
4.428

@<SCITEGIC>MOL_PROPERTY
Idih
SciTegic.value.DoubleValue
0.000

@<SCITEGIC>MOL_PROPERTY
Tether
SciTegic.value.DoubleValue
0.000

@<TRIPOS>MOLECULE
guest-s15_vm2.mol2 : vm2 ligand conformer 164
          29          28           1
SMALL
USER_CHARGES
 
@<TRIPOS>ATOM
       1    C1      19.581040   19.609174   19.780855 C.3        1 MOL1        -0.2426
       2    H1      18.775814   19.722186   19.043536 H          1 MOL1         0.0959
       3    H2      19.795500   20.603760   20.191170 H          1 MOL1         0.0959
       4    H3      20.474932   19.255295   19.251101 H          1 MOL1         0.0959
       5    C2      19.164205   18.617121   20.889919 C.3        1 MOL1        -0.1410
       6    H4      18.850699   17.674181   20.420755 H          1 MOL1         0.0948
       7    H5      18.279664   18.999641   21.416469 H          1 MOL1         0.0948
       8    C3      20.298289   18.311773   21.900941 C.3        1 MOL1        -0.1435
       9    H6      19.939054   17.559457   22.614291 H          1 MOL1         0.0948
      10    H7      21.131059   17.836228   21.364982 H          1 MOL1         0.0948
      11    C4      20.845683   19.543942   22.671906 C.3        1 MOL1        -0.1435
      12    H8      21.331488   20.223762   21.959550 H          1 MOL1         0.0948
      13    H9      21.648139   19.222683   23.347601 H          1 MOL1         0.0948
      14    C5      19.785440   20.343747   23.472581 C.3        1 MOL1        -0.1435
      15    H10     20.277636   21.205590   23.943863 H          1 MOL1         0.0948
      16    H11     19.058119   20.773469   22.771261 H          1 MOL1         0.0948
      17    C6      19.017326   19.550710   24.563530 C.3        1 MOL1        -0.1500
      18    H12     18.501076   18.685054   24.129737 H          1 MOL1         0.0948
      19    H13     18.218873   20.209924   24.928889 H          1 MOL1         0.0948
      20    C7      19.890970   19.122731   25.768695 C.3        1 MOL1         0.1162
      21    H14     20.751818   19.795971   25.824713 H          1 MOL1         0.0910
      22    C8      20.400813   17.676263   25.636038 C.3        1 MOL1        -0.2491
      23    H15     21.028071   17.547650   24.748798 H          1 MOL1         0.0959
      24    H16     21.009423   17.401310   26.506263 H          1 MOL1         0.0959
      25    H17     19.566629   16.966787   25.569233 H          1 MOL1         0.0959
      26    N1      19.152235   19.280539   27.069535 N.4        1 MOL1        -0.5987
      27    H18     18.842605   20.246361   27.211969 H          1 MOL1         0.3605
      28    H19     19.742860   19.029314   27.867498 H          1 MOL1         0.3605
      29    H20     18.322374   18.682165   27.103036 H          1 MOL1         0.3605
@<TRIPOS>BOND
    1     1     2    1
    2     1     3    1
    3     1     4    1
    4     1     5    1
    5     5     6    1
    6     5     7    1
    7     5     8    1
    8     8     9    1
    9     8    10    1
   10     8    11    1
   11    11    12    1
   12    11    13    1
   13    11    14    1
   14    14    15    1
   15    14    16    1
   16    14    17    1
   17    17    18    1
   18    17    19    1
   19    17    20    1
   20    20    21    1
   21    20    22    1
   22    22    23    1
   23    22    24    1
   24    22    25    1
   25    20    26    1
   26    26    27    1
   27    26    28    1
   28    26    29    1
@<TRIPOS>SUBSTRUCTURE
       1 MOL1            1 RESIDUE      1      MOL     
@<SCITEGIC>MOL_PROPERTY
VM2 Rank
SciTegic.value.IntegerValue
164

@<SCITEGIC>MOL_PROPERTY
Conf_Id
SciTegic.value.IntegerValue
928

@<SCITEGIC>MOL_PROPERTY
Probability
SciTegic.value.DoubleValue
0.00

@<SCITEGIC>MOL_PROPERTY
Sum Probability
SciTegic.value.DoubleValue
99.99

@<SCITEGIC>MOL_PROPERTY
Delta G
SciTegic.value.DoubleValue
5.300

@<SCITEGIC>MOL_PROPERTY
G
SciTegic.value.DoubleValue
39.002

@<SCITEGIC>MOL_PROPERTY
E
SciTegic.value.DoubleValue
0.462

@<SCITEGIC>MOL_PROPERTY
-TS
SciTegic.value.DoubleValue
38.540

@<SCITEGIC>MOL_PROPERTY
U+W
SciTegic.value.DoubleValue
-23.683

@<SCITEGIC>MOL_PROPERTY
U
SciTegic.value.DoubleValue
28.897

@<SCITEGIC>MOL_PROPERTY
W
SciTegic.value.DoubleValue
-52.580

@<SCITEGIC>MOL_PROPERTY
W(PB)
SciTegic.value.DoubleValue
-54.963

@<SCITEGIC>MOL_PROPERTY
W(SA)
SciTegic.value.DoubleValue
2.383

@<SCITEGIC>MOL_PROPERTY
Valence
SciTegic.value.DoubleValue
7.883

@<SCITEGIC>MOL_PROPERTY
Coulomb
SciTegic.value.DoubleValue
20.100

@<SCITEGIC>MOL_PROPERTY
VdW
SciTegic.value.DoubleValue
0.914

@<SCITEGIC>MOL_PROPERTY
VdW6
SciTegic.value.DoubleValue
-11.910

@<SCITEGIC>MOL_PROPERTY
VdW12
SciTegic.value.DoubleValue
12.824

@<SCITEGIC>MOL_PROPERTY
Bond
SciTegic.value.DoubleValue
0.365

@<SCITEGIC>MOL_PROPERTY
Angle
SciTegic.value.DoubleValue
2.784

@<SCITEGIC>MOL_PROPERTY
Pdih
SciTegic.value.DoubleValue
4.734

@<SCITEGIC>MOL_PROPERTY
Idih
SciTegic.value.DoubleValue
0.000

@<SCITEGIC>MOL_PROPERTY
Tether
SciTegic.value.DoubleValue
0.000

@<TRIPOS>MOLECULE
guest-s15_vm2.mol2 : vm2 ligand conformer 165
          29          28           1
SMALL
USER_CHARGES
 
@<TRIPOS>ATOM
       1    C1      19.465836   20.017499   19.699929 C.3        1 MOL1        -0.2426
       2    H1      20.283978   20.689502   19.987070 H          1 MOL1         0.0959
       3    H2      19.897893   19.146355   19.190555 H          1 MOL1         0.0959
       4    H3      18.838731   20.553014   18.975440 H          1 MOL1         0.0959
       5    C2      18.628073   19.585998   20.924809 C.3        1 MOL1        -0.1410
       6    H4      17.752509   19.022896   20.572456 H          1 MOL1         0.0948
       7    H5      18.235378   20.476387   21.435081 H          1 MOL1         0.0948
       8    C3      19.411305   18.706329   21.928995 C.3        1 MOL1        -0.1435
       9    H6      18.706953   18.349811   22.690165 H          1 MOL1         0.0948
      10    H7      19.784777   17.809579   21.415667 H          1 MOL1         0.0948
      11    C4      20.594750   19.446392   22.603317 C.3        1 MOL1        -0.1435
      12    H8      20.256831   20.389227   23.049766 H          1 MOL1         0.0948
      13    H9      21.321210   19.733149   21.831724 H          1 MOL1         0.0948
      14    C5      21.345343   18.591795   23.656791 C.3        1 MOL1        -0.1435
      15    H10     21.790530   17.725328   23.148543 H          1 MOL1         0.0948
      16    H11     22.192501   19.177289   24.040056 H          1 MOL1         0.0948
      17    C6      20.513067   18.076973   24.863857 C.3        1 MOL1        -0.1500
      18    H12     21.188966   17.468591   25.479511 H          1 MOL1         0.0948
      19    H13     19.725619   17.389751   24.530051 H          1 MOL1         0.0948
      20    C7      19.908180   19.189274   25.752742 C.3        1 MOL1         0.1162
      21    H14     20.644354   19.993677   25.844778 H          1 MOL1         0.0910
      22    C8      19.606220   18.648553   27.159990 C.3        1 MOL1        -0.2491
      23    H15     20.520365   18.279105   27.641250 H          1 MOL1         0.0959
      24    H16     19.191909   19.438124   27.799062 H          1 MOL1         0.0959
      25    H17     18.882799   17.824433   27.121536 H          1 MOL1         0.0959
      26    N1      18.663226   19.793188   25.163571 N.4        1 MOL1        -0.5987
      27    H18     18.331591   20.585941   25.720866 H          1 MOL1         0.3605
      28    H19     17.903872   19.108288   25.122457 H          1 MOL1         0.3605
      29    H20     18.830327   20.126926   24.210661 H          1 MOL1         0.3605
@<TRIPOS>BOND
    1     1     2    1
    2     1     3    1
    3     1     4    1
    4     1     5    1
    5     5     6    1
    6     5     7    1
    7     5     8    1
    8     8     9    1
    9     8    10    1
   10     8    11    1
   11    11    12    1
   12    11    13    1
   13    11    14    1
   14    14    15    1
   15    14    16    1
   16    14    17    1
   17    17    18    1
   18    17    19    1
   19    17    20    1
   20    20    21    1
   21    20    22    1
   22    22    23    1
   23    22    24    1
   24    22    25    1
   25    20    26    1
   26    26    27    1
   27    26    28    1
   28    26    29    1
@<TRIPOS>SUBSTRUCTURE
       1 MOL1            1 RESIDUE      1      MOL     
@<SCITEGIC>MOL_PROPERTY
VM2 Rank
SciTegic.value.IntegerValue
165

@<SCITEGIC>MOL_PROPERTY
Conf_Id
SciTegic.value.IntegerValue
830

@<SCITEGIC>MOL_PROPERTY
Probability
SciTegic.value.DoubleValue
0.00

@<SCITEGIC>MOL_PROPERTY
Sum Probability
SciTegic.value.DoubleValue
99.99

@<SCITEGIC>MOL_PROPERTY
Delta G
SciTegic.value.DoubleValue
5.470

@<SCITEGIC>MOL_PROPERTY
G
SciTegic.value.DoubleValue
39.172

@<SCITEGIC>MOL_PROPERTY
E
SciTegic.value.DoubleValue
0.985

@<SCITEGIC>MOL_PROPERTY
-TS
SciTegic.value.DoubleValue
38.187

@<SCITEGIC>MOL_PROPERTY
U+W
SciTegic.value.DoubleValue
-23.160

@<SCITEGIC>MOL_PROPERTY
U
SciTegic.value.DoubleValue
28.492

@<SCITEGIC>MOL_PROPERTY
W
SciTegic.value.DoubleValue
-51.652

@<SCITEGIC>MOL_PROPERTY
W(PB)
SciTegic.value.DoubleValue
-54.090

@<SCITEGIC>MOL_PROPERTY
W(SA)
SciTegic.value.DoubleValue
2.439

@<SCITEGIC>MOL_PROPERTY
Valence
SciTegic.value.DoubleValue
6.023

@<SCITEGIC>MOL_PROPERTY
Coulomb
SciTegic.value.DoubleValue
21.518

@<SCITEGIC>MOL_PROPERTY
VdW
SciTegic.value.DoubleValue
0.951

@<SCITEGIC>MOL_PROPERTY
VdW6
SciTegic.value.DoubleValue
-11.103

@<SCITEGIC>MOL_PROPERTY
VdW12
SciTegic.value.DoubleValue
12.053

@<SCITEGIC>MOL_PROPERTY
Bond
SciTegic.value.DoubleValue
0.333

@<SCITEGIC>MOL_PROPERTY
Angle
SciTegic.value.DoubleValue
2.459

@<SCITEGIC>MOL_PROPERTY
Pdih
SciTegic.value.DoubleValue
3.231

@<SCITEGIC>MOL_PROPERTY
Idih
SciTegic.value.DoubleValue
0.000

@<SCITEGIC>MOL_PROPERTY
Tether
SciTegic.value.DoubleValue
0.000

@<TRIPOS>MOLECULE
guest-s15_vm2.mol2 : vm2 ligand conformer 166
          29          28           1
SMALL
USER_CHARGES
 
@<TRIPOS>ATOM
       1    C1      20.544108   18.676414   20.022923 C.3        1 MOL1        -0.2426
       2    H1      21.275034   18.480709   20.817432 H          1 MOL1         0.0959
       3    H2      20.057158   17.728169   19.760930 H          1 MOL1         0.0959
       4    H3      21.098944   19.024422   19.142088 H          1 MOL1         0.0959
       5    C2      19.504105   19.732609   20.459673 C.3        1 MOL1        -0.1410
       6    H4      18.874266   19.986423   19.595667 H          1 MOL1         0.0948
       7    H5      20.015631   20.663131   20.738910 H          1 MOL1         0.0948
       8    C3      18.585599   19.255370   21.613860 C.3        1 MOL1        -0.1435
       9    H6      17.873791   20.056950   21.854425 H          1 MOL1         0.0948
      10    H7      17.978406   18.413620   21.253409 H          1 MOL1         0.0948
      11    C4      19.312084   18.817790   22.912554 C.3        1 MOL1        -0.1435
      12    H8      19.962826   17.957776   22.706862 H          1 MOL1         0.0948
      13    H9      18.544990   18.464839   23.611120 H          1 MOL1         0.0948
      14    C5      20.129838   19.951400   23.579474 C.3        1 MOL1        -0.1435
      15    H10     20.833330   20.364732   22.845901 H          1 MOL1         0.0948
      16    H11     19.460880   20.779561   23.848664 H          1 MOL1         0.0948
      17    C6      20.965811   19.516214   24.816837 C.3        1 MOL1        -0.1500
      18    H12     21.530302   20.395835   25.152797 H          1 MOL1         0.0948
      19    H13     21.727010   18.787629   24.508021 H          1 MOL1         0.0948
      20    C7      20.195088   18.971642   26.047491 C.3        1 MOL1         0.1162
      21    H14     20.821415   19.172187   26.922256 H          1 MOL1         0.0910
      22    C8      20.000781   17.444715   25.997284 C.3        1 MOL1        -0.2491
      23    H15     19.348160   17.130770   25.177477 H          1 MOL1         0.0959
      24    H16     20.964810   16.935230   25.876929 H          1 MOL1         0.0959
      25    H17     19.555415   17.086046   26.933319 H          1 MOL1         0.0959
      26    N1      18.898586   19.689846   26.303903 N.4        1 MOL1        -0.5987
      27    H18     18.250177   19.567972   25.522108 H          1 MOL1         0.3605
      28    H19     19.047862   20.695438   26.426892 H          1 MOL1         0.3605
      29    H20     18.437283   19.341766   27.149279 H          1 MOL1         0.3605
@<TRIPOS>BOND
    1     1     2    1
    2     1     3    1
    3     1     4    1
    4     1     5    1
    5     5     6    1
    6     5     7    1
    7     5     8    1
    8     8     9    1
    9     8    10    1
   10     8    11    1
   11    11    12    1
   12    11    13    1
   13    11    14    1
   14    14    15    1
   15    14    16    1
   16    14    17    1
   17    17    18    1
   18    17    19    1
   19    17    20    1
   20    20    21    1
   21    20    22    1
   22    22    23    1
   23    22    24    1
   24    22    25    1
   25    20    26    1
   26    26    27    1
   27    26    28    1
   28    26    29    1
@<TRIPOS>SUBSTRUCTURE
       1 MOL1            1 RESIDUE      1      MOL     
@<SCITEGIC>MOL_PROPERTY
VM2 Rank
SciTegic.value.IntegerValue
166

@<SCITEGIC>MOL_PROPERTY
Conf_Id
SciTegic.value.IntegerValue
649

@<SCITEGIC>MOL_PROPERTY
Probability
SciTegic.value.DoubleValue
0.00

@<SCITEGIC>MOL_PROPERTY
Sum Probability
SciTegic.value.DoubleValue
99.99

@<SCITEGIC>MOL_PROPERTY
Delta G
SciTegic.value.DoubleValue
5.487

@<SCITEGIC>MOL_PROPERTY
G
SciTegic.value.DoubleValue
39.189

@<SCITEGIC>MOL_PROPERTY
E
SciTegic.value.DoubleValue
0.913

@<SCITEGIC>MOL_PROPERTY
-TS
SciTegic.value.DoubleValue
38.276

@<SCITEGIC>MOL_PROPERTY
U+W
SciTegic.value.DoubleValue
-23.232

@<SCITEGIC>MOL_PROPERTY
U
SciTegic.value.DoubleValue
29.228

@<SCITEGIC>MOL_PROPERTY
W
SciTegic.value.DoubleValue
-52.460

@<SCITEGIC>MOL_PROPERTY
W(PB)
SciTegic.value.DoubleValue
-54.864

@<SCITEGIC>MOL_PROPERTY
W(SA)
SciTegic.value.DoubleValue
2.404

@<SCITEGIC>MOL_PROPERTY
Valence
SciTegic.value.DoubleValue
7.395

@<SCITEGIC>MOL_PROPERTY
Coulomb
SciTegic.value.DoubleValue
20.563

@<SCITEGIC>MOL_PROPERTY
VdW
SciTegic.value.DoubleValue
1.270

@<SCITEGIC>MOL_PROPERTY
VdW6
SciTegic.value.DoubleValue
-11.433

@<SCITEGIC>MOL_PROPERTY
VdW12
SciTegic.value.DoubleValue
12.703

@<SCITEGIC>MOL_PROPERTY
Bond
SciTegic.value.DoubleValue
0.391

@<SCITEGIC>MOL_PROPERTY
Angle
SciTegic.value.DoubleValue
3.157

@<SCITEGIC>MOL_PROPERTY
Pdih
SciTegic.value.DoubleValue
3.847

@<SCITEGIC>MOL_PROPERTY
Idih
SciTegic.value.DoubleValue
0.000

@<SCITEGIC>MOL_PROPERTY
Tether
SciTegic.value.DoubleValue
0.000

@<TRIPOS>MOLECULE
guest-s15_vm2.mol2 : vm2 ligand conformer 167
          29          28           1
SMALL
USER_CHARGES
 
@<TRIPOS>ATOM
       1    C1      20.009996   20.953872   21.344335 C.3        1 MOL1        -0.2426
       2    H1      20.731655   20.993841   22.168623 H          1 MOL1         0.0959
       3    H2      20.568926   20.870120   20.403304 H          1 MOL1         0.0959
       4    H3      19.474070   21.911727   21.330534 H          1 MOL1         0.0959
       5    C2      19.014851   19.781638   21.504376 C.3        1 MOL1        -0.1410
       6    H4      18.251713   19.867240   20.718297 H          1 MOL1         0.0948
       7    H5      18.474868   19.882266   22.451505 H          1 MOL1         0.0948
       8    C3      19.677202   18.384137   21.385623 C.3        1 MOL1        -0.1435
       9    H6      18.896710   17.611656   21.355600 H          1 MOL1         0.0948
      10    H7      20.176714   18.333080   20.408316 H          1 MOL1         0.0948
      11    C4      20.716486   18.023365   22.483017 C.3        1 MOL1        -0.1435
      12    H8      21.317554   18.895986   22.763595 H          1 MOL1         0.0948
      13    H9      21.432248   17.319388   22.036594 H          1 MOL1         0.0948
      14    C5      20.132175   17.330789   23.744151 C.3        1 MOL1        -0.1435
      15    H10     19.605219   16.416650   23.438170 H          1 MOL1         0.0948
      16    H11     20.966091   16.987711   24.370970 H          1 MOL1         0.0948
      17    C6      19.174493   18.190815   24.608716 C.3        1 MOL1        -0.1500
      18    H12     18.901884   17.621120   25.506918 H          1 MOL1         0.0948
      19    H13     18.237245   18.335867   24.058453 H          1 MOL1         0.0948
      20    C7      19.739929   19.566109   25.033748 C.3        1 MOL1         0.1162
      21    H14     20.027834   20.113057   24.131587 H          1 MOL1         0.0910
      22    C8      20.980250   19.426520   25.933712 C.3        1 MOL1        -0.2491
      23    H15     21.342448   20.412879   26.248581 H          1 MOL1         0.0959
      24    H16     20.752633   18.843593   26.834821 H          1 MOL1         0.0959
      25    H17     21.802434   18.931798   25.403637 H          1 MOL1         0.0959
      26    N1      18.690617   20.398755   25.716322 N.4        1 MOL1        -0.5987
      27    H18     19.051053   21.324724   25.963983 H          1 MOL1         0.3605
      28    H19     18.367988   19.956186   26.581100 H          1 MOL1         0.3605
      29    H20     17.871409   20.539699   25.118474 H          1 MOL1         0.3605
@<TRIPOS>BOND
    1     1     2    1
    2     1     3    1
    3     1     4    1
    4     1     5    1
    5     5     6    1
    6     5     7    1
    7     5     8    1
    8     8     9    1
    9     8    10    1
   10     8    11    1
   11    11    12    1
   12    11    13    1
   13    11    14    1
   14    14    15    1
   15    14    16    1
   16    14    17    1
   17    17    18    1
   18    17    19    1
   19    17    20    1
   20    20    21    1
   21    20    22    1
   22    22    23    1
   23    22    24    1
   24    22    25    1
   25    20    26    1
   26    26    27    1
   27    26    28    1
   28    26    29    1
@<TRIPOS>SUBSTRUCTURE
       1 MOL1            1 RESIDUE      1      MOL     
@<SCITEGIC>MOL_PROPERTY
VM2 Rank
SciTegic.value.IntegerValue
167

@<SCITEGIC>MOL_PROPERTY
Conf_Id
SciTegic.value.IntegerValue
1284

@<SCITEGIC>MOL_PROPERTY
Probability
SciTegic.value.DoubleValue
0.00

@<SCITEGIC>MOL_PROPERTY
Sum Probability
SciTegic.value.DoubleValue
99.99

@<SCITEGIC>MOL_PROPERTY
Delta G
SciTegic.value.DoubleValue
5.506

@<SCITEGIC>MOL_PROPERTY
G
SciTegic.value.DoubleValue
39.208

@<SCITEGIC>MOL_PROPERTY
E
SciTegic.value.DoubleValue
0.425

@<SCITEGIC>MOL_PROPERTY
-TS
SciTegic.value.DoubleValue
38.783

@<SCITEGIC>MOL_PROPERTY
U+W
SciTegic.value.DoubleValue
-23.719

@<SCITEGIC>MOL_PROPERTY
U
SciTegic.value.DoubleValue
29.314

@<SCITEGIC>MOL_PROPERTY
W
SciTegic.value.DoubleValue
-53.033

@<SCITEGIC>MOL_PROPERTY
W(PB)
SciTegic.value.DoubleValue
-55.383

@<SCITEGIC>MOL_PROPERTY
W(SA)
SciTegic.value.DoubleValue
2.350

@<SCITEGIC>MOL_PROPERTY
Valence
SciTegic.value.DoubleValue
7.653

@<SCITEGIC>MOL_PROPERTY
Coulomb
SciTegic.value.DoubleValue
21.278

@<SCITEGIC>MOL_PROPERTY
VdW
SciTegic.value.DoubleValue
0.382

@<SCITEGIC>MOL_PROPERTY
VdW6
SciTegic.value.DoubleValue
-12.612

@<SCITEGIC>MOL_PROPERTY
VdW12
SciTegic.value.DoubleValue
12.994

@<SCITEGIC>MOL_PROPERTY
Bond
SciTegic.value.DoubleValue
0.381

@<SCITEGIC>MOL_PROPERTY
Angle
SciTegic.value.DoubleValue
3.142

@<SCITEGIC>MOL_PROPERTY
Pdih
SciTegic.value.DoubleValue
4.131

@<SCITEGIC>MOL_PROPERTY
Idih
SciTegic.value.DoubleValue
0.000

@<SCITEGIC>MOL_PROPERTY
Tether
SciTegic.value.DoubleValue
0.000

@<TRIPOS>MOLECULE
guest-s15_vm2.mol2 : vm2 ligand conformer 168
          29          28           1
SMALL
USER_CHARGES
 
@<TRIPOS>ATOM
       1    C1      19.096398   19.006668   19.771624 C.3        1 MOL1        -0.2426
       2    H1      20.068440   19.198700   19.299098 H          1 MOL1         0.0959
       3    H2      19.058729   17.950354   20.065172 H          1 MOL1         0.0959
       4    H3      18.317789   19.166061   19.014475 H          1 MOL1         0.0959
       5    C2      18.872646   19.941311   20.981887 C.3        1 MOL1        -0.1410
       6    H4      17.909632   19.706549   21.456060 H          1 MOL1         0.0948
       7    H5      18.792086   20.975466   20.618770 H          1 MOL1         0.0948
       8    C3      20.007030   19.872312   22.032600 C.3        1 MOL1        -0.1435
       9    H6      20.963378   20.127223   21.555629 H          1 MOL1         0.0948
      10    H7      19.824004   20.650904   22.782754 H          1 MOL1         0.0948
      11    C4      20.125149   18.488800   22.721265 C.3        1 MOL1        -0.1435
      12    H8      20.378970   17.734847   21.964732 H          1 MOL1         0.0948
      13    H9      19.156230   18.179251   23.130002 H          1 MOL1         0.0948
      14    C5      21.215573   18.433560   23.821903 C.3        1 MOL1        -0.1435
      15    H10     21.289138   17.402937   24.193990 H          1 MOL1         0.0948
      16    H11     22.188231   18.640946   23.354997 H          1 MOL1         0.0948
      17    C6      21.039242   19.402982   25.027809 C.3        1 MOL1        -0.1500
      18    H12     21.132263   20.442040   24.688363 H          1 MOL1         0.0948
      19    H13     21.892035   19.248098   25.701744 H          1 MOL1         0.0948
      20    C7      19.748795   19.257713   25.874467 C.3        1 MOL1         0.1162
      21    H14     19.896530   19.850299   26.782580 H          1 MOL1         0.0910
      22    C8      19.494770   17.805024   26.313170 C.3        1 MOL1        -0.2491
      23    H15     18.661228   17.758912   27.024618 H          1 MOL1         0.0959
      24    H16     19.244411   17.161914   25.461134 H          1 MOL1         0.0959
      25    H17     20.379908   17.389042   26.810179 H          1 MOL1         0.0959
      26    N1      18.536398   19.847631   25.209274 N.4        1 MOL1        -0.5987
      27    H18     17.701853   19.744166   25.793789 H          1 MOL1         0.3605
      28    H19     18.350498   19.391184   24.313245 H          1 MOL1         0.3605
      29    H20     18.660566   20.847471   25.026831 H          1 MOL1         0.3605
@<TRIPOS>BOND
    1     1     2    1
    2     1     3    1
    3     1     4    1
    4     1     5    1
    5     5     6    1
    6     5     7    1
    7     5     8    1
    8     8     9    1
    9     8    10    1
   10     8    11    1
   11    11    12    1
   12    11    13    1
   13    11    14    1
   14    14    15    1
   15    14    16    1
   16    14    17    1
   17    17    18    1
   18    17    19    1
   19    17    20    1
   20    20    21    1
   21    20    22    1
   22    22    23    1
   23    22    24    1
   24    22    25    1
   25    20    26    1
   26    26    27    1
   27    26    28    1
   28    26    29    1
@<TRIPOS>SUBSTRUCTURE
       1 MOL1            1 RESIDUE      1      MOL     
@<SCITEGIC>MOL_PROPERTY
VM2 Rank
SciTegic.value.IntegerValue
168

@<SCITEGIC>MOL_PROPERTY
Conf_Id
SciTegic.value.IntegerValue
508

@<SCITEGIC>MOL_PROPERTY
Probability
SciTegic.value.DoubleValue
0.00

@<SCITEGIC>MOL_PROPERTY
Sum Probability
SciTegic.value.DoubleValue
99.99

@<SCITEGIC>MOL_PROPERTY
Delta G
SciTegic.value.DoubleValue
5.588

@<SCITEGIC>MOL_PROPERTY
G
SciTegic.value.DoubleValue
39.290

@<SCITEGIC>MOL_PROPERTY
E
SciTegic.value.DoubleValue
0.689

@<SCITEGIC>MOL_PROPERTY
-TS
SciTegic.value.DoubleValue
38.601

@<SCITEGIC>MOL_PROPERTY
U+W
SciTegic.value.DoubleValue
-23.456

@<SCITEGIC>MOL_PROPERTY
U
SciTegic.value.DoubleValue
28.745

@<SCITEGIC>MOL_PROPERTY
W
SciTegic.value.DoubleValue
-52.201

@<SCITEGIC>MOL_PROPERTY
W(PB)
SciTegic.value.DoubleValue
-54.566

@<SCITEGIC>MOL_PROPERTY
W(SA)
SciTegic.value.DoubleValue
2.364

@<SCITEGIC>MOL_PROPERTY
Valence
SciTegic.value.DoubleValue
6.147

@<SCITEGIC>MOL_PROPERTY
Coulomb
SciTegic.value.DoubleValue
21.776

@<SCITEGIC>MOL_PROPERTY
VdW
SciTegic.value.DoubleValue
0.823

@<SCITEGIC>MOL_PROPERTY
VdW6
SciTegic.value.DoubleValue
-12.079

@<SCITEGIC>MOL_PROPERTY
VdW12
SciTegic.value.DoubleValue
12.901

@<SCITEGIC>MOL_PROPERTY
Bond
SciTegic.value.DoubleValue
0.393

@<SCITEGIC>MOL_PROPERTY
Angle
SciTegic.value.DoubleValue
2.949

@<SCITEGIC>MOL_PROPERTY
Pdih
SciTegic.value.DoubleValue
2.805

@<SCITEGIC>MOL_PROPERTY
Idih
SciTegic.value.DoubleValue
0.000

@<SCITEGIC>MOL_PROPERTY
Tether
SciTegic.value.DoubleValue
0.000

@<TRIPOS>MOLECULE
guest-s15_vm2.mol2 : vm2 ligand conformer 169
          29          28           1
SMALL
USER_CHARGES
 
@<TRIPOS>ATOM
       1    C1      19.876096   19.071826   19.841129 C.3        1 MOL1        -0.2426
       2    H1      20.230967   18.087553   20.170974 H          1 MOL1         0.0959
       3    H2      18.864237   18.953816   19.432333 H          1 MOL1         0.0959
       4    H3      20.531728   19.403369   19.025643 H          1 MOL1         0.0959
       5    C2      19.891252   20.096007   20.998184 C.3        1 MOL1        -0.1410
       6    H4      19.641428   21.087397   20.595364 H          1 MOL1         0.0948
       7    H5      20.908559   20.183166   21.402423 H          1 MOL1         0.0948
       8    C3      18.891133   19.758445   22.132841 C.3        1 MOL1        -0.1435
       9    H6      18.921204   20.564198   22.876339 H          1 MOL1         0.0948
      10    H7      17.872630   19.773449   21.721157 H          1 MOL1         0.0948
      11    C4      19.123300   18.390578   22.830469 C.3        1 MOL1        -0.1435
      12    H8      18.957459   17.586458   22.101385 H          1 MOL1         0.0948
      13    H9      18.353447   18.235781   23.595553 H          1 MOL1         0.0948
      14    C5      20.529190   18.200726   23.459130 C.3        1 MOL1        -0.1435
      15    H10     20.589258   17.194930   23.895071 H          1 MOL1         0.0948
      16    H11     21.276431   18.201763   22.654717 H          1 MOL1         0.0948
      17    C6      20.956262   19.254127   24.522853 C.3        1 MOL1        -0.1500
      18    H12     20.995659   20.250542   24.065374 H          1 MOL1         0.0948
      19    H13     21.992242   19.030867   24.809621 H          1 MOL1         0.0948
      20    C7      20.122452   19.324909   25.828178 C.3        1 MOL1         0.1162
      21    H14     20.682343   19.953623   26.527378 H          1 MOL1         0.0910
      22    C8      19.948674   17.947248   26.490570 C.3        1 MOL1        -0.2491
      23    H15     19.490730   18.052869   27.481638 H          1 MOL1         0.0959
      24    H16     19.306231   17.289379   25.893108 H          1 MOL1         0.0959
      25    H17     20.919619   17.454100   26.623254 H          1 MOL1         0.0959
      26    N1      18.797641   20.012135   25.650646 N.4        1 MOL1        -0.5987
      27    H18     18.282876   20.064465   26.534408 H          1 MOL1         0.3605
      28    H19     18.211914   19.512722   24.977811 H          1 MOL1         0.3605
      29    H20     18.916735   20.969579   25.308195 H          1 MOL1         0.3605
@<TRIPOS>BOND
    1     1     2    1
    2     1     3    1
    3     1     4    1
    4     1     5    1
    5     5     6    1
    6     5     7    1
    7     5     8    1
    8     8     9    1
    9     8    10    1
   10     8    11    1
   11    11    12    1
   12    11    13    1
   13    11    14    1
   14    14    15    1
   15    14    16    1
   16    14    17    1
   17    17    18    1
   18    17    19    1
   19    17    20    1
   20    20    21    1
   21    20    22    1
   22    22    23    1
   23    22    24    1
   24    22    25    1
   25    20    26    1
   26    26    27    1
   27    26    28    1
   28    26    29    1
@<TRIPOS>SUBSTRUCTURE
       1 MOL1            1 RESIDUE      1      MOL     
@<SCITEGIC>MOL_PROPERTY
VM2 Rank
SciTegic.value.IntegerValue
169

@<SCITEGIC>MOL_PROPERTY
Conf_Id
SciTegic.value.IntegerValue
853

@<SCITEGIC>MOL_PROPERTY
Probability
SciTegic.value.DoubleValue
0.00

@<SCITEGIC>MOL_PROPERTY
Sum Probability
SciTegic.value.DoubleValue
99.99

@<SCITEGIC>MOL_PROPERTY
Delta G
SciTegic.value.DoubleValue
5.721

@<SCITEGIC>MOL_PROPERTY
G
SciTegic.value.DoubleValue
39.423

@<SCITEGIC>MOL_PROPERTY
E
SciTegic.value.DoubleValue
0.461

@<SCITEGIC>MOL_PROPERTY
-TS
SciTegic.value.DoubleValue
38.962

@<SCITEGIC>MOL_PROPERTY
U+W
SciTegic.value.DoubleValue
-23.684

@<SCITEGIC>MOL_PROPERTY
U
SciTegic.value.DoubleValue
28.968

@<SCITEGIC>MOL_PROPERTY
W
SciTegic.value.DoubleValue
-52.652

@<SCITEGIC>MOL_PROPERTY
W(PB)
SciTegic.value.DoubleValue
-55.007

@<SCITEGIC>MOL_PROPERTY
W(SA)
SciTegic.value.DoubleValue
2.355

@<SCITEGIC>MOL_PROPERTY
Valence
SciTegic.value.DoubleValue
6.483

@<SCITEGIC>MOL_PROPERTY
Coulomb
SciTegic.value.DoubleValue
21.800

@<SCITEGIC>MOL_PROPERTY
VdW
SciTegic.value.DoubleValue
0.685

@<SCITEGIC>MOL_PROPERTY
VdW6
SciTegic.value.DoubleValue
-13.002

@<SCITEGIC>MOL_PROPERTY
VdW12
SciTegic.value.DoubleValue
13.687

@<SCITEGIC>MOL_PROPERTY
Bond
SciTegic.value.DoubleValue
0.441

@<SCITEGIC>MOL_PROPERTY
Angle
SciTegic.value.DoubleValue
3.285

@<SCITEGIC>MOL_PROPERTY
Pdih
SciTegic.value.DoubleValue
2.757

@<SCITEGIC>MOL_PROPERTY
Idih
SciTegic.value.DoubleValue
0.000

@<SCITEGIC>MOL_PROPERTY
Tether
SciTegic.value.DoubleValue
0.000

@<TRIPOS>MOLECULE
guest-s15_vm2.mol2 : vm2 ligand conformer 170
          29          28           1
SMALL
USER_CHARGES
 
@<TRIPOS>ATOM
       1    C1      19.347527   21.014029   20.544975 C.3        1 MOL1        -0.2426
       2    H1      18.430072   21.303510   20.016235 H          1 MOL1         0.0959
       3    H2      19.544882   21.769857   21.316284 H          1 MOL1         0.0959
       4    H3      20.173996   21.039213   19.822764 H          1 MOL1         0.0959
       5    C2      19.197564   19.609994   21.167578 C.3        1 MOL1        -0.1410
       6    H4      18.972438   18.883129   20.374610 H          1 MOL1         0.0948
       7    H5      18.334766   19.614063   21.844461 H          1 MOL1         0.0948
       8    C3      20.482289   19.180647   21.915922 C.3        1 MOL1        -0.1435
       9    H6      21.323328   19.222335   21.210018 H          1 MOL1         0.0948
      10    H7      20.721614   19.909882   22.696390 H          1 MOL1         0.0948
      11    C4      20.418938   17.742886   22.496937 C.3        1 MOL1        -0.1435
      12    H8      21.410434   17.461210   22.877218 H          1 MOL1         0.0948
      13    H9      20.219080   17.053932   21.664579 H          1 MOL1         0.0948
      14    C5      19.356813   17.489590   23.602698 C.3        1 MOL1        -0.1435
      15    H10     18.403580   17.971709   23.357465 H          1 MOL1         0.0948
      16    H11     19.134863   16.413449   23.602311 H          1 MOL1         0.0948
      17    C6      19.801661   17.856319   25.044985 C.3        1 MOL1        -0.1500
      18    H12     20.696710   17.272662   25.297993 H          1 MOL1         0.0948
      19    H13     19.020031   17.527393   25.742727 H          1 MOL1         0.0948
      20    C7      20.094468   19.351150   25.295172 C.3        1 MOL1         0.1162
      21    H14     20.935716   19.647251   24.663570 H          1 MOL1         0.0910
      22    C8      20.502780   19.577630   26.759293 C.3        1 MOL1        -0.2491
      23    H15     19.691288   19.304292   27.445357 H          1 MOL1         0.0959
      24    H16     21.383912   18.976113   27.015292 H          1 MOL1         0.0959
      25    H17     20.756638   20.630613   26.932921 H          1 MOL1         0.0959
      26    N1      18.933961   20.233754   24.926441 N.4        1 MOL1        -0.5987
      27    H18     19.150425   21.222259   25.084276 H          1 MOL1         0.3605
      28    H19     18.104324   20.007682   25.481871 H          1 MOL1         0.3605
      29    H20     18.689638   20.121520   23.938553 H          1 MOL1         0.3605
@<TRIPOS>BOND
    1     1     2    1
    2     1     3    1
    3     1     4    1
    4     1     5    1
    5     5     6    1
    6     5     7    1
    7     5     8    1
    8     8     9    1
    9     8    10    1
   10     8    11    1
   11    11    12    1
   12    11    13    1
   13    11    14    1
   14    14    15    1
   15    14    16    1
   16    14    17    1
   17    17    18    1
   18    17    19    1
   19    17    20    1
   20    20    21    1
   21    20    22    1
   22    22    23    1
   23    22    24    1
   24    22    25    1
   25    20    26    1
   26    26    27    1
   27    26    28    1
   28    26    29    1
@<TRIPOS>SUBSTRUCTURE
       1 MOL1            1 RESIDUE      1      MOL     
@<SCITEGIC>MOL_PROPERTY
VM2 Rank
SciTegic.value.IntegerValue
170

@<SCITEGIC>MOL_PROPERTY
Conf_Id
SciTegic.value.IntegerValue
633

@<SCITEGIC>MOL_PROPERTY
Probability
SciTegic.value.DoubleValue
0.00

@<SCITEGIC>MOL_PROPERTY
Sum Probability
SciTegic.value.DoubleValue
99.99

@<SCITEGIC>MOL_PROPERTY
Delta G
SciTegic.value.DoubleValue
5.734

@<SCITEGIC>MOL_PROPERTY
G
SciTegic.value.DoubleValue
39.436

@<SCITEGIC>MOL_PROPERTY
E
SciTegic.value.DoubleValue
1.175

@<SCITEGIC>MOL_PROPERTY
-TS
SciTegic.value.DoubleValue
38.261

@<SCITEGIC>MOL_PROPERTY
U+W
SciTegic.value.DoubleValue
-22.969

@<SCITEGIC>MOL_PROPERTY
U
SciTegic.value.DoubleValue
28.533

@<SCITEGIC>MOL_PROPERTY
W
SciTegic.value.DoubleValue
-51.503

@<SCITEGIC>MOL_PROPERTY
W(PB)
SciTegic.value.DoubleValue
-53.929

@<SCITEGIC>MOL_PROPERTY
W(SA)
SciTegic.value.DoubleValue
2.426

@<SCITEGIC>MOL_PROPERTY
Valence
SciTegic.value.DoubleValue
6.517

@<SCITEGIC>MOL_PROPERTY
Coulomb
SciTegic.value.DoubleValue
21.462

@<SCITEGIC>MOL_PROPERTY
VdW
SciTegic.value.DoubleValue
0.554

@<SCITEGIC>MOL_PROPERTY
VdW6
SciTegic.value.DoubleValue
-11.293

@<SCITEGIC>MOL_PROPERTY
VdW12
SciTegic.value.DoubleValue
11.847

@<SCITEGIC>MOL_PROPERTY
Bond
SciTegic.value.DoubleValue
0.345

@<SCITEGIC>MOL_PROPERTY
Angle
SciTegic.value.DoubleValue
2.712

@<SCITEGIC>MOL_PROPERTY
Pdih
SciTegic.value.DoubleValue
3.460

@<SCITEGIC>MOL_PROPERTY
Idih
SciTegic.value.DoubleValue
0.000

@<SCITEGIC>MOL_PROPERTY
Tether
SciTegic.value.DoubleValue
0.000

@<TRIPOS>MOLECULE
guest-s15_vm2.mol2 : vm2 ligand conformer 171
          29          28           1
SMALL
USER_CHARGES
 
@<TRIPOS>ATOM
       1    C1      21.034057   20.608771   21.022082 C.3        1 MOL1        -0.2426
       2    H1      20.497725   20.962012   20.131695 H          1 MOL1         0.0959
       3    H2      20.918129   21.361858   21.812378 H          1 MOL1         0.0959
       4    H3      22.100693   20.545966   20.770408 H          1 MOL1         0.0959
       5    C2      20.501042   19.235749   21.481749 C.3        1 MOL1        -0.1410
       6    H4      21.083836   18.891535   22.344333 H          1 MOL1         0.0948
       7    H5      20.666341   18.496834   20.685219 H          1 MOL1         0.0948
       8    C3      18.992504   19.293952   21.823289 C.3        1 MOL1        -0.1435
       9    H6      18.775187   20.125914   22.505924 H          1 MOL1         0.0948
      10    H7      18.445058   19.519280   20.897562 H          1 MOL1         0.0948
      11    C4      18.448131   17.965476   22.406798 C.3        1 MOL1        -0.1435
      12    H8      19.042110   17.117611   22.038595 H          1 MOL1         0.0948
      13    H9      17.437491   17.809605   22.004576 H          1 MOL1         0.0948
      14    C5      18.342351   17.907409   23.954885 C.3        1 MOL1        -0.1435
      15    H10     17.644517   18.676562   24.309636 H          1 MOL1         0.0948
      16    H11     17.870690   16.948886   24.212001 H          1 MOL1         0.0948
      17    C6      19.688247   17.990208   24.724377 C.3        1 MOL1        -0.1500
      18    H12     20.442546   17.395167   24.193131 H          1 MOL1         0.0948
      19    H13     19.562981   17.508639   25.703306 H          1 MOL1         0.0948
      20    C7      20.213192   19.426170   24.956127 C.3        1 MOL1         0.1162
      21    H14     20.273135   19.939550   23.993865 H          1 MOL1         0.0910
      22    C8      21.624387   19.386415   25.562962 C.3        1 MOL1        -0.2491
      23    H15     22.317147   18.848391   24.903949 H          1 MOL1         0.0959
      24    H16     22.016930   20.401586   25.699800 H          1 MOL1         0.0959
      25    H17     21.622986   18.885680   26.539277 H          1 MOL1         0.0959
      26    N1      19.292090   20.241850   25.821731 N.4        1 MOL1        -0.5987
      27    H18     19.645000   21.194462   25.950404 H          1 MOL1         0.3605
      28    H19     19.189001   19.825500   26.751024 H          1 MOL1         0.3605
      29    H20     18.357600   20.313135   25.410649 H          1 MOL1         0.3605
@<TRIPOS>BOND
    1     1     2    1
    2     1     3    1
    3     1     4    1
    4     1     5    1
    5     5     6    1
    6     5     7    1
    7     5     8    1
    8     8     9    1
    9     8    10    1
   10     8    11    1
   11    11    12    1
   12    11    13    1
   13    11    14    1
   14    14    15    1
   15    14    16    1
   16    14    17    1
   17    17    18    1
   18    17    19    1
   19    17    20    1
   20    20    21    1
   21    20    22    1
   22    22    23    1
   23    22    24    1
   24    22    25    1
   25    20    26    1
   26    26    27    1
   27    26    28    1
   28    26    29    1
@<TRIPOS>SUBSTRUCTURE
       1 MOL1            1 RESIDUE      1      MOL     
@<SCITEGIC>MOL_PROPERTY
VM2 Rank
SciTegic.value.IntegerValue
171

@<SCITEGIC>MOL_PROPERTY
Conf_Id
SciTegic.value.IntegerValue
835

@<SCITEGIC>MOL_PROPERTY
Probability
SciTegic.value.DoubleValue
0.00

@<SCITEGIC>MOL_PROPERTY
Sum Probability
SciTegic.value.DoubleValue
100.00

@<SCITEGIC>MOL_PROPERTY
Delta G
SciTegic.value.DoubleValue
5.851

@<SCITEGIC>MOL_PROPERTY
G
SciTegic.value.DoubleValue
39.553

@<SCITEGIC>MOL_PROPERTY
E
SciTegic.value.DoubleValue
1.178

@<SCITEGIC>MOL_PROPERTY
-TS
SciTegic.value.DoubleValue
38.375

@<SCITEGIC>MOL_PROPERTY
U+W
SciTegic.value.DoubleValue
-22.966

@<SCITEGIC>MOL_PROPERTY
U
SciTegic.value.DoubleValue
29.616

@<SCITEGIC>MOL_PROPERTY
W
SciTegic.value.DoubleValue
-52.582

@<SCITEGIC>MOL_PROPERTY
W(PB)
SciTegic.value.DoubleValue
-54.955

@<SCITEGIC>MOL_PROPERTY
W(SA)
SciTegic.value.DoubleValue
2.373

@<SCITEGIC>MOL_PROPERTY
Valence
SciTegic.value.DoubleValue
8.185

@<SCITEGIC>MOL_PROPERTY
Coulomb
SciTegic.value.DoubleValue
21.112

@<SCITEGIC>MOL_PROPERTY
VdW
SciTegic.value.DoubleValue
0.319

@<SCITEGIC>MOL_PROPERTY
VdW6
SciTegic.value.DoubleValue
-11.889

@<SCITEGIC>MOL_PROPERTY
VdW12
SciTegic.value.DoubleValue
12.208

@<SCITEGIC>MOL_PROPERTY
Bond
SciTegic.value.DoubleValue
0.321

@<SCITEGIC>MOL_PROPERTY
Angle
SciTegic.value.DoubleValue
2.381

@<SCITEGIC>MOL_PROPERTY
Pdih
SciTegic.value.DoubleValue
5.483

@<SCITEGIC>MOL_PROPERTY
Idih
SciTegic.value.DoubleValue
0.000

@<SCITEGIC>MOL_PROPERTY
Tether
SciTegic.value.DoubleValue
0.000

@<TRIPOS>MOLECULE
guest-s15_vm2.mol2 : vm2 ligand conformer 172
          29          28           1
SMALL
USER_CHARGES
 
@<TRIPOS>ATOM
       1    C1      19.693895   19.669349   19.878201 C.3        1 MOL1        -0.2426
       2    H1      18.871680   19.107058   19.417015 H          1 MOL1         0.0959
       3    H2      19.277251   20.575623   20.334927 H          1 MOL1         0.0959
       4    H3      20.375438   19.985616   19.078035 H          1 MOL1         0.0959
       5    C2      20.443053   18.804965   20.917194 C.3        1 MOL1        -0.1410
       6    H4      21.248419   19.393213   21.376794 H          1 MOL1         0.0948
       7    H5      20.937311   17.974085   20.394838 H          1 MOL1         0.0948
       8    C3      19.516708   18.217893   22.012145 C.3        1 MOL1        -0.1435
       9    H6      18.779624   17.557681   21.534990 H          1 MOL1         0.0948
      10    H7      20.112540   17.569776   22.666720 H          1 MOL1         0.0948
      11    C4      18.758955   19.268471   22.868389 C.3        1 MOL1        -0.1435
      12    H8      18.119102   18.753157   23.593902 H          1 MOL1         0.0948
      13    H9      18.061833   19.818376   22.222464 H          1 MOL1         0.0948
      14    C5      19.660523   20.293936   23.603814 C.3        1 MOL1        -0.1435
      15    H10     20.166494   20.912874   22.851124 H          1 MOL1         0.0948
      16    H11     19.022117   20.994998   24.157116 H          1 MOL1         0.0948
      17    C6      20.744590   19.710959   24.558008 C.3        1 MOL1        -0.1500
      18    H12     21.356451   20.555719   24.900179 H          1 MOL1         0.0948
      19    H13     21.437722   19.070082   23.998788 H          1 MOL1         0.0948
      20    C7      20.254478   18.969970   25.829786 C.3        1 MOL1         0.1162
      21    H14     21.075848   19.016460   26.551499 H          1 MOL1         0.0910
      22    C8      19.975678   17.475757   25.589056 C.3        1 MOL1        -0.2491
      23    H15     19.102160   17.312491   24.951264 H          1 MOL1         0.0959
      24    H16     20.839702   16.988148   25.121203 H          1 MOL1         0.0959
      25    H17     19.788032   16.966347   26.542149 H          1 MOL1         0.0959
      26    N1      19.088119   19.644700   26.497407 N.4        1 MOL1        -0.5987
      27    H18     18.825994   19.168874   27.365379 H          1 MOL1         0.3605
      28    H19     18.268009   19.649323   25.885853 H          1 MOL1         0.3605
      29    H20     19.304064   20.617590   26.732715 H          1 MOL1         0.3605
@<TRIPOS>BOND
    1     1     2    1
    2     1     3    1
    3     1     4    1
    4     1     5    1
    5     5     6    1
    6     5     7    1
    7     5     8    1
    8     8     9    1
    9     8    10    1
   10     8    11    1
   11    11    12    1
   12    11    13    1
   13    11    14    1
   14    14    15    1
   15    14    16    1
   16    14    17    1
   17    17    18    1
   18    17    19    1
   19    17    20    1
   20    20    21    1
   21    20    22    1
   22    22    23    1
   23    22    24    1
   24    22    25    1
   25    20    26    1
   26    26    27    1
   27    26    28    1
   28    26    29    1
@<TRIPOS>SUBSTRUCTURE
       1 MOL1            1 RESIDUE      1      MOL     
@<SCITEGIC>MOL_PROPERTY
VM2 Rank
SciTegic.value.IntegerValue
172

@<SCITEGIC>MOL_PROPERTY
Conf_Id
SciTegic.value.IntegerValue
958

@<SCITEGIC>MOL_PROPERTY
Probability
SciTegic.value.DoubleValue
0.00

@<SCITEGIC>MOL_PROPERTY
Sum Probability
SciTegic.value.DoubleValue
100.00

@<SCITEGIC>MOL_PROPERTY
Delta G
SciTegic.value.DoubleValue
5.931

@<SCITEGIC>MOL_PROPERTY
G
SciTegic.value.DoubleValue
39.633

@<SCITEGIC>MOL_PROPERTY
E
SciTegic.value.DoubleValue
0.648

@<SCITEGIC>MOL_PROPERTY
-TS
SciTegic.value.DoubleValue
38.985

@<SCITEGIC>MOL_PROPERTY
U+W
SciTegic.value.DoubleValue
-23.496

@<SCITEGIC>MOL_PROPERTY
U
SciTegic.value.DoubleValue
29.135

@<SCITEGIC>MOL_PROPERTY
W
SciTegic.value.DoubleValue
-52.632

@<SCITEGIC>MOL_PROPERTY
W(PB)
SciTegic.value.DoubleValue
-54.976

@<SCITEGIC>MOL_PROPERTY
W(SA)
SciTegic.value.DoubleValue
2.344

@<SCITEGIC>MOL_PROPERTY
Valence
SciTegic.value.DoubleValue
7.786

@<SCITEGIC>MOL_PROPERTY
Coulomb
SciTegic.value.DoubleValue
20.543

@<SCITEGIC>MOL_PROPERTY
VdW
SciTegic.value.DoubleValue
0.807

@<SCITEGIC>MOL_PROPERTY
VdW6
SciTegic.value.DoubleValue
-12.839

@<SCITEGIC>MOL_PROPERTY
VdW12
SciTegic.value.DoubleValue
13.646

@<SCITEGIC>MOL_PROPERTY
Bond
SciTegic.value.DoubleValue
0.443

@<SCITEGIC>MOL_PROPERTY
Angle
SciTegic.value.DoubleValue
3.662

@<SCITEGIC>MOL_PROPERTY
Pdih
SciTegic.value.DoubleValue
3.681

@<SCITEGIC>MOL_PROPERTY
Idih
SciTegic.value.DoubleValue
0.000

@<SCITEGIC>MOL_PROPERTY
Tether
SciTegic.value.DoubleValue
0.000

@<TRIPOS>MOLECULE
guest-s15_vm2.mol2 : vm2 ligand conformer 173
          29          28           1
SMALL
USER_CHARGES
 
@<TRIPOS>ATOM
       1    C1      20.829164   19.337502   20.025216 C.3        1 MOL1        -0.2426
       2    H1      21.498625   20.002522   19.464450 H          1 MOL1         0.0959
       3    H2      21.420140   18.867912   20.818742 H          1 MOL1         0.0959
       4    H3      20.493646   18.548384   19.339863 H          1 MOL1         0.0959
       5    C2      19.626015   20.131203   20.585502 C.3        1 MOL1        -0.1410
       6    H4      19.119273   20.616011   19.739311 H          1 MOL1         0.0948
       7    H5      19.975589   20.945656   21.235085 H          1 MOL1         0.0948
       8    C3      18.593928   19.249194   21.334774 C.3        1 MOL1        -0.1435
       9    H6      17.596857   19.681228   21.171681 H          1 MOL1         0.0948
      10    H7      18.556697   18.245278   20.889935 H          1 MOL1         0.0948
      11    C4      18.811140   19.149216   22.866719 C.3        1 MOL1        -0.1435
      12    H8      17.969187   18.588318   23.295373 H          1 MOL1         0.0948
      13    H9      18.769497   20.160100   23.290470 H          1 MOL1         0.0948
      14    C5      20.136842   18.462731   23.274955 C.3        1 MOL1        -0.1435
      15    H10     20.276893   17.568911   22.651624 H          1 MOL1         0.0948
      16    H11     20.980139   19.131167   23.056944 H          1 MOL1         0.0948
      17    C6      20.211273   18.024883   24.761489 C.3        1 MOL1        -0.1500
      18    H12     21.133352   17.440082   24.879184 H          1 MOL1         0.0948
      19    H13     19.388542   17.336698   24.996273 H          1 MOL1         0.0948
      20    C7      20.234928   19.188772   25.780386 C.3        1 MOL1         0.1162
      21    H14     20.884126   19.977615   25.388225 H          1 MOL1         0.0910
      22    C8      20.813768   18.712076   27.122728 C.3        1 MOL1        -0.2491
      23    H15     20.850694   19.536970   27.844995 H          1 MOL1         0.0959
      24    H16     20.205302   17.906972   27.553548 H          1 MOL1         0.0959
      25    H17     21.837112   18.337186   26.996247 H          1 MOL1         0.0959
      26    N1      18.878942   19.800423   26.002232 N.4        1 MOL1        -0.5987
      27    H18     18.927755   20.593223   26.648619 H          1 MOL1         0.3605
      28    H19     18.225764   19.120437   26.400327 H          1 MOL1         0.3605
      29    H20     18.475075   20.139891   25.126401 H          1 MOL1         0.3605
@<TRIPOS>BOND
    1     1     2    1
    2     1     3    1
    3     1     4    1
    4     1     5    1
    5     5     6    1
    6     5     7    1
    7     5     8    1
    8     8     9    1
    9     8    10    1
   10     8    11    1
   11    11    12    1
   12    11    13    1
   13    11    14    1
   14    14    15    1
   15    14    16    1
   16    14    17    1
   17    17    18    1
   18    17    19    1
   19    17    20    1
   20    20    21    1
   21    20    22    1
   22    22    23    1
   23    22    24    1
   24    22    25    1
   25    20    26    1
   26    26    27    1
   27    26    28    1
   28    26    29    1
@<TRIPOS>SUBSTRUCTURE
       1 MOL1            1 RESIDUE      1      MOL     
@<SCITEGIC>MOL_PROPERTY
VM2 Rank
SciTegic.value.IntegerValue
173

@<SCITEGIC>MOL_PROPERTY
Conf_Id
SciTegic.value.IntegerValue
967

@<SCITEGIC>MOL_PROPERTY
Probability
SciTegic.value.DoubleValue
0.00

@<SCITEGIC>MOL_PROPERTY
Sum Probability
SciTegic.value.DoubleValue
100.00

@<SCITEGIC>MOL_PROPERTY
Delta G
SciTegic.value.DoubleValue
6.078

@<SCITEGIC>MOL_PROPERTY
G
SciTegic.value.DoubleValue
39.780

@<SCITEGIC>MOL_PROPERTY
E
SciTegic.value.DoubleValue
2.058

@<SCITEGIC>MOL_PROPERTY
-TS
SciTegic.value.DoubleValue
37.722

@<SCITEGIC>MOL_PROPERTY
U+W
SciTegic.value.DoubleValue
-22.086

@<SCITEGIC>MOL_PROPERTY
U
SciTegic.value.DoubleValue
30.184

@<SCITEGIC>MOL_PROPERTY
W
SciTegic.value.DoubleValue
-52.270

@<SCITEGIC>MOL_PROPERTY
W(PB)
SciTegic.value.DoubleValue
-54.705

@<SCITEGIC>MOL_PROPERTY
W(SA)
SciTegic.value.DoubleValue
2.434

@<SCITEGIC>MOL_PROPERTY
Valence
SciTegic.value.DoubleValue
7.817

@<SCITEGIC>MOL_PROPERTY
Coulomb
SciTegic.value.DoubleValue
21.246

@<SCITEGIC>MOL_PROPERTY
VdW
SciTegic.value.DoubleValue
1.122

@<SCITEGIC>MOL_PROPERTY
VdW6
SciTegic.value.DoubleValue
-10.605

@<SCITEGIC>MOL_PROPERTY
VdW12
SciTegic.value.DoubleValue
11.728

@<SCITEGIC>MOL_PROPERTY
Bond
SciTegic.value.DoubleValue
0.328

@<SCITEGIC>MOL_PROPERTY
Angle
SciTegic.value.DoubleValue
2.365

@<SCITEGIC>MOL_PROPERTY
Pdih
SciTegic.value.DoubleValue
5.123

@<SCITEGIC>MOL_PROPERTY
Idih
SciTegic.value.DoubleValue
0.000

@<SCITEGIC>MOL_PROPERTY
Tether
SciTegic.value.DoubleValue
0.000

@<TRIPOS>MOLECULE
guest-s15_vm2.mol2 : vm2 ligand conformer 174
          29          28           1
SMALL
USER_CHARGES
 
@<TRIPOS>ATOM
       1    C1      18.701179   20.718292   20.917406 C.3        1 MOL1        -0.2426
       2    H1      17.866310   20.673375   21.628437 H          1 MOL1         0.0959
       3    H2      19.494943   21.338863   21.350885 H          1 MOL1         0.0959
       4    H3      18.342127   21.229800   20.014912 H          1 MOL1         0.0959
       5    C2      19.210923   19.302165   20.564899 C.3        1 MOL1        -0.1410
       6    H4      20.054034   19.375101   19.863733 H          1 MOL1         0.0948
       7    H5      18.414753   18.763017   20.032675 H          1 MOL1         0.0948
       8    C3      19.628449   18.474265   21.803204 C.3        1 MOL1        -0.1435
       9    H6      18.778045   18.408413   22.492565 H          1 MOL1         0.0948
      10    H7      19.839384   17.445093   21.481398 H          1 MOL1         0.0948
      11    C4      20.881161   19.037232   22.521688 C.3        1 MOL1        -0.1435
      12    H8      20.721494   20.071766   22.844836 H          1 MOL1         0.0948
      13    H9      21.706883   19.082990   21.798201 H          1 MOL1         0.0948
      14    C5      21.341731   18.177809   23.726228 C.3        1 MOL1        -0.1435
      15    H10     21.636681   17.186206   23.356121 H          1 MOL1         0.0948
      16    H11     22.255997   18.622706   24.142831 H          1 MOL1         0.0948
      17    C6      20.313560   17.987543   24.875653 C.3        1 MOL1        -0.1500
      18    H12     20.787252   17.336712   25.622667 H          1 MOL1         0.0948
      19    H13     19.433658   17.435075   24.522652 H          1 MOL1         0.0948
      20    C7      19.875190   19.297900   25.571842 C.3        1 MOL1         0.1162
      21    H14     20.750715   19.948244   25.661282 H          1 MOL1         0.0910
      22    C8      19.345259   19.005472   26.985123 C.3        1 MOL1        -0.2491
      23    H15     20.117509   18.527887   27.601000 H          1 MOL1         0.0959
      24    H16     19.047943   19.933746   27.488514 H          1 MOL1         0.0959
      25    H17     18.473764   18.339595   26.952156 H          1 MOL1         0.0959
      26    N1      18.838547   20.055321   24.787957 N.4        1 MOL1        -0.5987
      27    H18     19.149625   20.217207   23.825845 H          1 MOL1         0.3605
      28    H19     18.638521   20.965365   25.213533 H          1 MOL1         0.3605
      29    H20     17.957270   19.536498   24.745165 H          1 MOL1         0.3605
@<TRIPOS>BOND
    1     1     2    1
    2     1     3    1
    3     1     4    1
    4     1     5    1
    5     5     6    1
    6     5     7    1
    7     5     8    1
    8     8     9    1
    9     8    10    1
   10     8    11    1
   11    11    12    1
   12    11    13    1
   13    11    14    1
   14    14    15    1
   15    14    16    1
   16    14    17    1
   17    17    18    1
   18    17    19    1
   19    17    20    1
   20    20    21    1
   21    20    22    1
   22    22    23    1
   23    22    24    1
   24    22    25    1
   25    20    26    1
   26    26    27    1
   27    26    28    1
   28    26    29    1
@<TRIPOS>SUBSTRUCTURE
       1 MOL1            1 RESIDUE      1      MOL     
@<SCITEGIC>MOL_PROPERTY
VM2 Rank
SciTegic.value.IntegerValue
174

@<SCITEGIC>MOL_PROPERTY
Conf_Id
SciTegic.value.IntegerValue
1295

@<SCITEGIC>MOL_PROPERTY
Probability
SciTegic.value.DoubleValue
0.00

@<SCITEGIC>MOL_PROPERTY
Sum Probability
SciTegic.value.DoubleValue
100.00

@<SCITEGIC>MOL_PROPERTY
Delta G
SciTegic.value.DoubleValue
6.248

@<SCITEGIC>MOL_PROPERTY
G
SciTegic.value.DoubleValue
39.950

@<SCITEGIC>MOL_PROPERTY
E
SciTegic.value.DoubleValue
1.608

@<SCITEGIC>MOL_PROPERTY
-TS
SciTegic.value.DoubleValue
38.341

@<SCITEGIC>MOL_PROPERTY
U+W
SciTegic.value.DoubleValue
-22.536

@<SCITEGIC>MOL_PROPERTY
U
SciTegic.value.DoubleValue
28.370

@<SCITEGIC>MOL_PROPERTY
W
SciTegic.value.DoubleValue
-50.906

@<SCITEGIC>MOL_PROPERTY
W(PB)
SciTegic.value.DoubleValue
-53.306

@<SCITEGIC>MOL_PROPERTY
W(SA)
SciTegic.value.DoubleValue
2.400

@<SCITEGIC>MOL_PROPERTY
Valence
SciTegic.value.DoubleValue
5.939

@<SCITEGIC>MOL_PROPERTY
Coulomb
SciTegic.value.DoubleValue
21.711

@<SCITEGIC>MOL_PROPERTY
VdW
SciTegic.value.DoubleValue
0.720

@<SCITEGIC>MOL_PROPERTY
VdW6
SciTegic.value.DoubleValue
-11.570

@<SCITEGIC>MOL_PROPERTY
VdW12
SciTegic.value.DoubleValue
12.290

@<SCITEGIC>MOL_PROPERTY
Bond
SciTegic.value.DoubleValue
0.321

@<SCITEGIC>MOL_PROPERTY
Angle
SciTegic.value.DoubleValue
2.348

@<SCITEGIC>MOL_PROPERTY
Pdih
SciTegic.value.DoubleValue
3.270

@<SCITEGIC>MOL_PROPERTY
Idih
SciTegic.value.DoubleValue
0.000

@<SCITEGIC>MOL_PROPERTY
Tether
SciTegic.value.DoubleValue
0.000

@<TRIPOS>MOLECULE
guest-s15_vm2.mol2 : vm2 ligand conformer 175
          29          28           1
SMALL
USER_CHARGES
 
@<TRIPOS>ATOM
       1    C1      21.292805   19.937197   21.335282 C.3        1 MOL1        -0.2426
       2    H1      21.124313   20.861068   20.766942 H          1 MOL1         0.0959
       3    H2      21.150416   20.165553   22.396571 H          1 MOL1         0.0959
       4    H3      22.342163   19.647269   21.195379 H          1 MOL1         0.0959
       5    C2      20.351220   18.811500   20.847142 C.3        1 MOL1        -0.1410
       6    H4      20.576282   17.866355   21.359147 H          1 MOL1         0.0948
       7    H5      20.567291   18.633028   19.784451 H          1 MOL1         0.0948
       8    C3      18.847214   19.157779   20.988047 C.3        1 MOL1        -0.1435
       9    H6      18.692748   20.236842   20.850881 H          1 MOL1         0.0948
      10    H7      18.315343   18.678692   20.154400 H          1 MOL1         0.0948
      11    C4      18.163610   18.683723   22.299465 C.3        1 MOL1        -0.1435
      12    H8      18.247343   17.592453   22.395687 H          1 MOL1         0.0948
      13    H9      17.088468   18.885587   22.195736 H          1 MOL1         0.0948
      14    C5      18.651307   19.377267   23.596716 C.3        1 MOL1        -0.1435
      15    H10     19.010806   20.389826   23.369520 H          1 MOL1         0.0948
      16    H11     17.785809   19.506189   24.260275 H          1 MOL1         0.0948
      17    C6      19.733442   18.564837   24.354029 C.3        1 MOL1        -0.1500
      18    H12     20.547698   18.303318   23.669294 H          1 MOL1         0.0948
      19    H13     19.305430   17.613698   24.697411 H          1 MOL1         0.0948
      20    C7      20.325111   19.330616   25.556641 C.3        1 MOL1         0.1162
      21    H14     20.720427   20.284587   25.194320 H          1 MOL1         0.0910
      22    C8      21.482571   18.534792   26.180276 C.3        1 MOL1        -0.2491
      23    H15     21.931148   19.090050   27.013256 H          1 MOL1         0.0959
      24    H16     21.137706   17.565505   26.561698 H          1 MOL1         0.0959
      25    H17     22.271576   18.349881   25.440619 H          1 MOL1         0.0959
      26    N1      19.288721   19.658290   26.596402 N.4        1 MOL1        -0.5987
      27    H18     19.693769   20.184674   27.375796 H          1 MOL1         0.3605
      28    H19     18.868999   18.809435   26.984692 H          1 MOL1         0.3605
      29    H20     18.532163   20.225051   26.203822 H          1 MOL1         0.3605
@<TRIPOS>BOND
    1     1     2    1
    2     1     3    1
    3     1     4    1
    4     1     5    1
    5     5     6    1
    6     5     7    1
    7     5     8    1
    8     8     9    1
    9     8    10    1
   10     8    11    1
   11    11    12    1
   12    11    13    1
   13    11    14    1
   14    14    15    1
   15    14    16    1
   16    14    17    1
   17    17    18    1
   18    17    19    1
   19    17    20    1
   20    20    21    1
   21    20    22    1
   22    22    23    1
   23    22    24    1
   24    22    25    1
   25    20    26    1
   26    26    27    1
   27    26    28    1
   28    26    29    1
@<TRIPOS>SUBSTRUCTURE
       1 MOL1            1 RESIDUE      1      MOL     
@<SCITEGIC>MOL_PROPERTY
VM2 Rank
SciTegic.value.IntegerValue
175

@<SCITEGIC>MOL_PROPERTY
Conf_Id
SciTegic.value.IntegerValue
1208

@<SCITEGIC>MOL_PROPERTY
Probability
SciTegic.value.DoubleValue
0.00

@<SCITEGIC>MOL_PROPERTY
Sum Probability
SciTegic.value.DoubleValue
100.00

@<SCITEGIC>MOL_PROPERTY
Delta G
SciTegic.value.DoubleValue
6.256

@<SCITEGIC>MOL_PROPERTY
G
SciTegic.value.DoubleValue
39.958

@<SCITEGIC>MOL_PROPERTY
E
SciTegic.value.DoubleValue
1.672

@<SCITEGIC>MOL_PROPERTY
-TS
SciTegic.value.DoubleValue
38.285

@<SCITEGIC>MOL_PROPERTY
U+W
SciTegic.value.DoubleValue
-22.472

@<SCITEGIC>MOL_PROPERTY
U
SciTegic.value.DoubleValue
30.008

@<SCITEGIC>MOL_PROPERTY
W
SciTegic.value.DoubleValue
-52.480

@<SCITEGIC>MOL_PROPERTY
W(PB)
SciTegic.value.DoubleValue
-54.891

@<SCITEGIC>MOL_PROPERTY
W(SA)
SciTegic.value.DoubleValue
2.411

@<SCITEGIC>MOL_PROPERTY
Valence
SciTegic.value.DoubleValue
8.778

@<SCITEGIC>MOL_PROPERTY
Coulomb
SciTegic.value.DoubleValue
20.386

@<SCITEGIC>MOL_PROPERTY
VdW
SciTegic.value.DoubleValue
0.844

@<SCITEGIC>MOL_PROPERTY
VdW6
SciTegic.value.DoubleValue
-10.990

@<SCITEGIC>MOL_PROPERTY
VdW12
SciTegic.value.DoubleValue
11.834

@<SCITEGIC>MOL_PROPERTY
Bond
SciTegic.value.DoubleValue
0.330

@<SCITEGIC>MOL_PROPERTY
Angle
SciTegic.value.DoubleValue
2.382

@<SCITEGIC>MOL_PROPERTY
Pdih
SciTegic.value.DoubleValue
6.066

@<SCITEGIC>MOL_PROPERTY
Idih
SciTegic.value.DoubleValue
0.000

@<SCITEGIC>MOL_PROPERTY
Tether
SciTegic.value.DoubleValue
0.000

@<TRIPOS>MOLECULE
guest-s15_vm2.mol2 : vm2 ligand conformer 176
          29          28           1
SMALL
USER_CHARGES
 
@<TRIPOS>ATOM
       1    C1      18.080887   19.761166   20.936536 C.3        1 MOL1        -0.2426
       2    H1      17.507547   19.909640   20.012267 H          1 MOL1         0.0959
       3    H2      17.681055   18.866488   21.429206 H          1 MOL1         0.0959
       4    H3      17.897139   20.627499   21.584821 H          1 MOL1         0.0959
       5    C2      19.585983   19.612872   20.616871 C.3        1 MOL1        -0.1410
       6    H4      19.907946   20.480466   20.024062 H          1 MOL1         0.0948
       7    H5      19.745078   18.730575   19.981261 H          1 MOL1         0.0948
       8    C3      20.475221   19.517247   21.879191 C.3        1 MOL1        -0.1435
       9    H6      21.528596   19.554779   21.569086 H          1 MOL1         0.0948
      10    H7      20.309791   20.404851   22.501570 H          1 MOL1         0.0948
      11    C4      20.242225   18.220613   22.695384 C.3        1 MOL1        -0.1435
      12    H8      20.415521   17.358010   22.037285 H          1 MOL1         0.0948
      13    H9      19.197884   18.138780   23.014719 H          1 MOL1         0.0948
      14    C5      21.178114   18.087881   23.923526 C.3        1 MOL1        -0.1435
      15    H10     21.003061   17.113024   24.397942 H          1 MOL1         0.0948
      16    H11     22.216453   18.052273   23.566258 H          1 MOL1         0.0948
      17    C6      21.071029   19.209990   24.997929 C.3        1 MOL1        -0.1500
      18    H12     21.405936   20.164715   24.573507 H          1 MOL1         0.0948
      19    H13     21.797515   18.980080   25.788361 H          1 MOL1         0.0948
      20    C7      19.693103   19.412102   25.679391 C.3        1 MOL1         0.1162
      21    H14     19.857085   20.068580   26.539511 H          1 MOL1         0.0910
      22    C8      19.104468   18.095654   26.215901 C.3        1 MOL1        -0.2491
      23    H15     18.823574   17.415398   25.403191 H          1 MOL1         0.0959
      24    H16     19.827794   17.581352   26.860748 H          1 MOL1         0.0959
      25    H17     18.206453   18.292268   26.814226 H          1 MOL1         0.0959
      26    N1      18.704970   20.138475   24.809270 N.4        1 MOL1        -0.5987
      27    H18     17.803155   20.250881   25.281671 H          1 MOL1         0.3605
      28    H19     18.543281   19.631133   23.935625 H          1 MOL1         0.3605
      29    H20     19.041955   21.074237   24.565510 H          1 MOL1         0.3605
@<TRIPOS>BOND
    1     1     2    1
    2     1     3    1
    3     1     4    1
    4     1     5    1
    5     5     6    1
    6     5     7    1
    7     5     8    1
    8     8     9    1
    9     8    10    1
   10     8    11    1
   11    11    12    1
   12    11    13    1
   13    11    14    1
   14    14    15    1
   15    14    16    1
   16    14    17    1
   17    17    18    1
   18    17    19    1
   19    17    20    1
   20    20    21    1
   21    20    22    1
   22    22    23    1
   23    22    24    1
   24    22    25    1
   25    20    26    1
   26    26    27    1
   27    26    28    1
   28    26    29    1
@<TRIPOS>SUBSTRUCTURE
       1 MOL1            1 RESIDUE      1      MOL     
@<SCITEGIC>MOL_PROPERTY
VM2 Rank
SciTegic.value.IntegerValue
176

@<SCITEGIC>MOL_PROPERTY
Conf_Id
SciTegic.value.IntegerValue
348

@<SCITEGIC>MOL_PROPERTY
Probability
SciTegic.value.DoubleValue
0.00

@<SCITEGIC>MOL_PROPERTY
Sum Probability
SciTegic.value.DoubleValue
100.00

@<SCITEGIC>MOL_PROPERTY
Delta G
SciTegic.value.DoubleValue
6.290

@<SCITEGIC>MOL_PROPERTY
G
SciTegic.value.DoubleValue
39.992

@<SCITEGIC>MOL_PROPERTY
E
SciTegic.value.DoubleValue
1.248

@<SCITEGIC>MOL_PROPERTY
-TS
SciTegic.value.DoubleValue
38.744

@<SCITEGIC>MOL_PROPERTY
U+W
SciTegic.value.DoubleValue
-22.896

@<SCITEGIC>MOL_PROPERTY
U
SciTegic.value.DoubleValue
28.641

@<SCITEGIC>MOL_PROPERTY
W
SciTegic.value.DoubleValue
-51.537

@<SCITEGIC>MOL_PROPERTY
W(PB)
SciTegic.value.DoubleValue
-53.872

@<SCITEGIC>MOL_PROPERTY
W(SA)
SciTegic.value.DoubleValue
2.335

@<SCITEGIC>MOL_PROPERTY
Valence
SciTegic.value.DoubleValue
6.059

@<SCITEGIC>MOL_PROPERTY
Coulomb
SciTegic.value.DoubleValue
22.000

@<SCITEGIC>MOL_PROPERTY
VdW
SciTegic.value.DoubleValue
0.582

@<SCITEGIC>MOL_PROPERTY
VdW6
SciTegic.value.DoubleValue
-12.551

@<SCITEGIC>MOL_PROPERTY
VdW12
SciTegic.value.DoubleValue
13.133

@<SCITEGIC>MOL_PROPERTY
Bond
SciTegic.value.DoubleValue
0.383

@<SCITEGIC>MOL_PROPERTY
Angle
SciTegic.value.DoubleValue
2.850

@<SCITEGIC>MOL_PROPERTY
Pdih
SciTegic.value.DoubleValue
2.826

@<SCITEGIC>MOL_PROPERTY
Idih
SciTegic.value.DoubleValue
0.000

@<SCITEGIC>MOL_PROPERTY
Tether
SciTegic.value.DoubleValue
0.000

@<TRIPOS>MOLECULE
guest-s15_vm2.mol2 : vm2 ligand conformer 177
          29          28           1
SMALL
USER_CHARGES
 
@<TRIPOS>ATOM
       1    C1      20.555494   18.524878   20.164293 C.3        1 MOL1        -0.2426
       2    H1      20.610723   17.595013   19.583625 H          1 MOL1         0.0959
       3    H2      20.826791   19.351600   19.495018 H          1 MOL1         0.0959
       4    H3      21.312596   18.466865   20.953631 H          1 MOL1         0.0959
       5    C2      19.131622   18.721071   20.734846 C.3        1 MOL1        -0.1410
       6    H4      18.849279   17.862293   21.359562 H          1 MOL1         0.0948
       7    H5      18.427883   18.724965   19.890694 H          1 MOL1         0.0948
       8    C3      18.957794   20.043541   21.525567 C.3        1 MOL1        -0.1435
       9    H6      19.615374   20.822133   21.115085 H          1 MOL1         0.0948
      10    H7      17.933451   20.405681   21.361425 H          1 MOL1         0.0948
      11    C4      19.166548   19.918588   23.056671 C.3        1 MOL1        -0.1435
      12    H8      18.442201   19.194799   23.449815 H          1 MOL1         0.0948
      13    H9      18.928306   20.888176   23.515121 H          1 MOL1         0.0948
      14    C5      20.599304   19.503556   23.468900 C.3        1 MOL1        -0.1435
      15    H10     20.781169   18.460605   23.181124 H          1 MOL1         0.0948
      16    H11     21.317538   20.106871   22.897047 H          1 MOL1         0.0948
      17    C6      20.917372   19.689494   24.979294 C.3        1 MOL1        -0.1500
      18    H12     20.844099   20.754061   25.237329 H          1 MOL1         0.0948
      19    H13     21.971832   19.425105   25.133274 H          1 MOL1         0.0948
      20    C7      20.077311   18.867614   25.990073 C.3        1 MOL1         0.1162
      21    H14     20.570825   18.963345   26.962166 H          1 MOL1         0.0910
      22    C8      20.037999   17.369593   25.641299 C.3        1 MOL1        -0.2491
      23    H15     19.471427   17.182715   24.721208 H          1 MOL1         0.0959
      24    H16     21.052848   16.975097   25.507150 H          1 MOL1         0.0959
      25    H17     19.563204   16.799541   26.449199 H          1 MOL1         0.0959
      26    N1      18.692558   19.417665   26.193057 N.4        1 MOL1        -0.5987
      27    H18     18.719211   20.395196   26.497038 H          1 MOL1         0.3605
      28    H19     18.181919   18.889425   26.906466 H          1 MOL1         0.3605
      29    H20     18.147751   19.377618   25.329231 H          1 MOL1         0.3605
@<TRIPOS>BOND
    1     1     2    1
    2     1     3    1
    3     1     4    1
    4     1     5    1
    5     5     6    1
    6     5     7    1
    7     5     8    1
    8     8     9    1
    9     8    10    1
   10     8    11    1
   11    11    12    1
   12    11    13    1
   13    11    14    1
   14    14    15    1
   15    14    16    1
   16    14    17    1
   17    17    18    1
   18    17    19    1
   19    17    20    1
   20    20    21    1
   21    20    22    1
   22    22    23    1
   23    22    24    1
   24    22    25    1
   25    20    26    1
   26    26    27    1
   27    26    28    1
   28    26    29    1
@<TRIPOS>SUBSTRUCTURE
       1 MOL1            1 RESIDUE      1      MOL     
@<SCITEGIC>MOL_PROPERTY
VM2 Rank
SciTegic.value.IntegerValue
177

@<SCITEGIC>MOL_PROPERTY
Conf_Id
SciTegic.value.IntegerValue
976

@<SCITEGIC>MOL_PROPERTY
Probability
SciTegic.value.DoubleValue
0.00

@<SCITEGIC>MOL_PROPERTY
Sum Probability
SciTegic.value.DoubleValue
100.00

@<SCITEGIC>MOL_PROPERTY
Delta G
SciTegic.value.DoubleValue
6.387

@<SCITEGIC>MOL_PROPERTY
G
SciTegic.value.DoubleValue
40.089

@<SCITEGIC>MOL_PROPERTY
E
SciTegic.value.DoubleValue
1.771

@<SCITEGIC>MOL_PROPERTY
-TS
SciTegic.value.DoubleValue
38.318

@<SCITEGIC>MOL_PROPERTY
U+W
SciTegic.value.DoubleValue
-22.374

@<SCITEGIC>MOL_PROPERTY
U
SciTegic.value.DoubleValue
30.296

@<SCITEGIC>MOL_PROPERTY
W
SciTegic.value.DoubleValue
-52.670

@<SCITEGIC>MOL_PROPERTY
W(PB)
SciTegic.value.DoubleValue
-55.069

@<SCITEGIC>MOL_PROPERTY
W(SA)
SciTegic.value.DoubleValue
2.399

@<SCITEGIC>MOL_PROPERTY
Valence
SciTegic.value.DoubleValue
7.940

@<SCITEGIC>MOL_PROPERTY
Coulomb
SciTegic.value.DoubleValue
21.395

@<SCITEGIC>MOL_PROPERTY
VdW
SciTegic.value.DoubleValue
0.961

@<SCITEGIC>MOL_PROPERTY
VdW6
SciTegic.value.DoubleValue
-11.719

@<SCITEGIC>MOL_PROPERTY
VdW12
SciTegic.value.DoubleValue
12.680

@<SCITEGIC>MOL_PROPERTY
Bond
SciTegic.value.DoubleValue
0.376

@<SCITEGIC>MOL_PROPERTY
Angle
SciTegic.value.DoubleValue
2.868

@<SCITEGIC>MOL_PROPERTY
Pdih
SciTegic.value.DoubleValue
4.695

@<SCITEGIC>MOL_PROPERTY
Idih
SciTegic.value.DoubleValue
0.000

@<SCITEGIC>MOL_PROPERTY
Tether
SciTegic.value.DoubleValue
0.000

@<TRIPOS>MOLECULE
guest-s15_vm2.mol2 : vm2 ligand conformer 178
          29          28           1
SMALL
USER_CHARGES
 
@<TRIPOS>ATOM
       1    C1      20.492372   19.784593   19.562751 C.3        1 MOL1        -0.2426
       2    H1      21.362411   20.427455   19.376298 H          1 MOL1         0.0959
       3    H2      20.630797   18.856734   18.992552 H          1 MOL1         0.0959
       4    H3      19.604116   20.297391   19.171255 H          1 MOL1         0.0959
       5    C2      20.343966   19.492595   21.070889 C.3        1 MOL1        -0.1410
       6    H4      20.245562   20.444612   21.609298 H          1 MOL1         0.0948
       7    H5      21.257734   19.005564   21.438598 H          1 MOL1         0.0948
       8    C3      19.120129   18.593402   21.359704 C.3        1 MOL1        -0.1435
       9    H6      18.204086   19.107389   21.037395 H          1 MOL1         0.0948
      10    H7      19.192714   17.685292   20.745444 H          1 MOL1         0.0948
      11    C4      18.977745   18.168658   22.844046 C.3        1 MOL1        -0.1435
      12    H8      19.852182   17.578401   23.144800 H          1 MOL1         0.0948
      13    H9      18.119968   17.485532   22.912777 H          1 MOL1         0.0948
      14    C5      18.738622   19.345927   23.828168 C.3        1 MOL1        -0.1435
      15    H10     18.220850   20.154890   23.294705 H          1 MOL1         0.0948
      16    H11     18.037204   19.024422   24.608586 H          1 MOL1         0.0948
      17    C6      20.029973   19.912071   24.487283 C.3        1 MOL1        -0.1500
      18    H12     19.906813   20.995565   24.614292 H          1 MOL1         0.0948
      19    H13     20.886271   19.793538   23.812948 H          1 MOL1         0.0948
      20    C7      20.396121   19.317395   25.869790 C.3        1 MOL1         0.1162
      21    H14     21.318505   19.806773   26.197546 H          1 MOL1         0.0910
      22    C8      20.670358   17.805664   25.811829 C.3        1 MOL1        -0.2491
      23    H15     19.763845   17.241321   25.562139 H          1 MOL1         0.0959
      24    H16     21.438906   17.578149   25.062938 H          1 MOL1         0.0959
      25    H17     21.034629   17.443990   26.781169 H          1 MOL1         0.0959
      26    N1      19.366714   19.635695   26.919540 N.4        1 MOL1        -0.5987
      27    H18     19.654206   19.293492   27.840857 H          1 MOL1         0.3605
      28    H19     18.465486   19.204808   26.699565 H          1 MOL1         0.3605
      29    H20     19.214095   20.644938   27.001886 H          1 MOL1         0.3605
@<TRIPOS>BOND
    1     1     2    1
    2     1     3    1
    3     1     4    1
    4     1     5    1
    5     5     6    1
    6     5     7    1
    7     5     8    1
    8     8     9    1
    9     8    10    1
   10     8    11    1
   11    11    12    1
   12    11    13    1
   13    11    14    1
   14    14    15    1
   15    14    16    1
   16    14    17    1
   17    17    18    1
   18    17    19    1
   19    17    20    1
   20    20    21    1
   21    20    22    1
   22    22    23    1
   23    22    24    1
   24    22    25    1
   25    20    26    1
   26    26    27    1
   27    26    28    1
   28    26    29    1
@<TRIPOS>SUBSTRUCTURE
       1 MOL1            1 RESIDUE      1      MOL     
@<SCITEGIC>MOL_PROPERTY
VM2 Rank
SciTegic.value.IntegerValue
178

@<SCITEGIC>MOL_PROPERTY
Conf_Id
SciTegic.value.IntegerValue
630

@<SCITEGIC>MOL_PROPERTY
Probability
SciTegic.value.DoubleValue
0.00

@<SCITEGIC>MOL_PROPERTY
Sum Probability
SciTegic.value.DoubleValue
100.00

@<SCITEGIC>MOL_PROPERTY
Delta G
SciTegic.value.DoubleValue
6.392

@<SCITEGIC>MOL_PROPERTY
G
SciTegic.value.DoubleValue
40.093

@<SCITEGIC>MOL_PROPERTY
E
SciTegic.value.DoubleValue
1.855

@<SCITEGIC>MOL_PROPERTY
-TS
SciTegic.value.DoubleValue
38.238

@<SCITEGIC>MOL_PROPERTY
U+W
SciTegic.value.DoubleValue
-22.289

@<SCITEGIC>MOL_PROPERTY
U
SciTegic.value.DoubleValue
30.253

@<SCITEGIC>MOL_PROPERTY
W
SciTegic.value.DoubleValue
-52.543

@<SCITEGIC>MOL_PROPERTY
W(PB)
SciTegic.value.DoubleValue
-54.955

@<SCITEGIC>MOL_PROPERTY
W(SA)
SciTegic.value.DoubleValue
2.412

@<SCITEGIC>MOL_PROPERTY
Valence
SciTegic.value.DoubleValue
8.874

@<SCITEGIC>MOL_PROPERTY
Coulomb
SciTegic.value.DoubleValue
20.220

@<SCITEGIC>MOL_PROPERTY
VdW
SciTegic.value.DoubleValue
1.159

@<SCITEGIC>MOL_PROPERTY
VdW6
SciTegic.value.DoubleValue
-11.236

@<SCITEGIC>MOL_PROPERTY
VdW12
SciTegic.value.DoubleValue
12.395

@<SCITEGIC>MOL_PROPERTY
Bond
SciTegic.value.DoubleValue
0.376

@<SCITEGIC>MOL_PROPERTY
Angle
SciTegic.value.DoubleValue
2.277

@<SCITEGIC>MOL_PROPERTY
Pdih
SciTegic.value.DoubleValue
6.221

@<SCITEGIC>MOL_PROPERTY
Idih
SciTegic.value.DoubleValue
0.000

@<SCITEGIC>MOL_PROPERTY
Tether
SciTegic.value.DoubleValue
0.000

@<TRIPOS>MOLECULE
guest-s15_vm2.mol2 : vm2 ligand conformer 179
          29          28           1
SMALL
USER_CHARGES
 
@<TRIPOS>ATOM
       1    C1      19.707857   18.225153   20.133769 C.3        1 MOL1        -0.2426
       2    H1      19.300272   17.757991   19.227967 H          1 MOL1         0.0959
       3    H2      20.802745   18.201935   20.059788 H          1 MOL1         0.0959
       4    H3      19.401956   17.608087   20.987793 H          1 MOL1         0.0959
       5    C2      19.190258   19.673372   20.273737 C.3        1 MOL1        -0.1410
       6    H4      18.097024   19.659920   20.384864 H          1 MOL1         0.0948
       7    H5      19.394283   20.212642   19.338182 H          1 MOL1         0.0948
       8    C3      19.820865   20.465904   21.447245 C.3        1 MOL1        -0.1435
       9    H6      20.904052   20.570064   21.295120 H          1 MOL1         0.0948
      10    H7      19.417195   21.487245   21.410501 H          1 MOL1         0.0948
      11    C4      19.527774   19.879250   22.852606 C.3        1 MOL1        -0.1435
      12    H8      18.572529   19.336640   22.838593 H          1 MOL1         0.0948
      13    H9      19.404584   20.720835   23.545391 H          1 MOL1         0.0948
      14    C5      20.664508   18.968709   23.382640 C.3        1 MOL1        -0.1435
      15    H10     20.968617   18.266536   22.597240 H          1 MOL1         0.0948
      16    H11     21.551894   19.581686   23.592616 H          1 MOL1         0.0948
      17    C6      20.300498   18.141480   24.643570 C.3        1 MOL1        -0.1500
      18    H12     21.143086   17.464776   24.839012 H          1 MOL1         0.0948
      19    H13     19.438692   17.493772   24.435293 H          1 MOL1         0.0948
      20    C7      20.036446   18.979228   25.917098 C.3        1 MOL1         0.1162
      21    H14     20.768235   19.792047   25.953554 H          1 MOL1         0.0910
      22    C8      20.216638   18.112487   27.174291 C.3        1 MOL1        -0.2491
      23    H15     19.513635   17.269996   27.179365 H          1 MOL1         0.0959
      24    H16     21.235270   17.708390   27.227926 H          1 MOL1         0.0959
      25    H17     20.047623   18.704647   28.082181 H          1 MOL1         0.0959
      26    N1      18.671157   19.610416   25.929045 N.4        1 MOL1        -0.5987
      27    H18     18.536620   20.194323   26.759530 H          1 MOL1         0.3605
      28    H19     17.934133   18.900283   25.931369 H          1 MOL1         0.3605
      29    H20     18.526345   20.202303   25.107906 H          1 MOL1         0.3605
@<TRIPOS>BOND
    1     1     2    1
    2     1     3    1
    3     1     4    1
    4     1     5    1
    5     5     6    1
    6     5     7    1
    7     5     8    1
    8     8     9    1
    9     8    10    1
   10     8    11    1
   11    11    12    1
   12    11    13    1
   13    11    14    1
   14    14    15    1
   15    14    16    1
   16    14    17    1
   17    17    18    1
   18    17    19    1
   19    17    20    1
   20    20    21    1
   21    20    22    1
   22    22    23    1
   23    22    24    1
   24    22    25    1
   25    20    26    1
   26    26    27    1
   27    26    28    1
   28    26    29    1
@<TRIPOS>SUBSTRUCTURE
       1 MOL1            1 RESIDUE      1      MOL     
@<SCITEGIC>MOL_PROPERTY
VM2 Rank
SciTegic.value.IntegerValue
179

@<SCITEGIC>MOL_PROPERTY
Conf_Id
SciTegic.value.IntegerValue
1221

@<SCITEGIC>MOL_PROPERTY
Probability
SciTegic.value.DoubleValue
0.00

@<SCITEGIC>MOL_PROPERTY
Sum Probability
SciTegic.value.DoubleValue
100.00

@<SCITEGIC>MOL_PROPERTY
Delta G
SciTegic.value.DoubleValue
6.431

@<SCITEGIC>MOL_PROPERTY
G
SciTegic.value.DoubleValue
40.133

@<SCITEGIC>MOL_PROPERTY
E
SciTegic.value.DoubleValue
2.284

@<SCITEGIC>MOL_PROPERTY
-TS
SciTegic.value.DoubleValue
37.848

@<SCITEGIC>MOL_PROPERTY
U+W
SciTegic.value.DoubleValue
-21.860

@<SCITEGIC>MOL_PROPERTY
U
SciTegic.value.DoubleValue
30.313

@<SCITEGIC>MOL_PROPERTY
W
SciTegic.value.DoubleValue
-52.174

@<SCITEGIC>MOL_PROPERTY
W(PB)
SciTegic.value.DoubleValue
-54.607

@<SCITEGIC>MOL_PROPERTY
W(SA)
SciTegic.value.DoubleValue
2.433

@<SCITEGIC>MOL_PROPERTY
Valence
SciTegic.value.DoubleValue
7.950

@<SCITEGIC>MOL_PROPERTY
Coulomb
SciTegic.value.DoubleValue
21.216

@<SCITEGIC>MOL_PROPERTY
VdW
SciTegic.value.DoubleValue
1.147

@<SCITEGIC>MOL_PROPERTY
VdW6
SciTegic.value.DoubleValue
-10.650

@<SCITEGIC>MOL_PROPERTY
VdW12
SciTegic.value.DoubleValue
11.797

@<SCITEGIC>MOL_PROPERTY
Bond
SciTegic.value.DoubleValue
0.329

@<SCITEGIC>MOL_PROPERTY
Angle
SciTegic.value.DoubleValue
2.264

@<SCITEGIC>MOL_PROPERTY
Pdih
SciTegic.value.DoubleValue
5.357

@<SCITEGIC>MOL_PROPERTY
Idih
SciTegic.value.DoubleValue
0.000

@<SCITEGIC>MOL_PROPERTY
Tether
SciTegic.value.DoubleValue
0.000

@<TRIPOS>MOLECULE
guest-s15_vm2.mol2 : vm2 ligand conformer 180
          29          28           1
SMALL
USER_CHARGES
 
@<TRIPOS>ATOM
       1    C1      19.061973   20.225874   20.119868 C.3        1 MOL1        -0.2426
       2    H1      18.587403   19.545780   19.400649 H          1 MOL1         0.0959
       3    H2      18.376273   20.356381   20.964019 H          1 MOL1         0.0959
       4    H3      19.174752   21.201844   19.630330 H          1 MOL1         0.0959
       5    C2      20.439585   19.683191   20.566169 C.3        1 MOL1        -0.1410
       6    H4      20.932553   20.399228   21.238331 H          1 MOL1         0.0948
       7    H5      21.079895   19.614672   19.675566 H          1 MOL1         0.0948
       8    C3      20.367137   18.283455   21.229144 C.3        1 MOL1        -0.1435
       9    H6      19.531223   17.706608   20.810080 H          1 MOL1         0.0948
      10    H7      21.275354   17.729239   20.954645 H          1 MOL1         0.0948
      11    C4      20.282777   18.299578   22.777179 C.3        1 MOL1        -0.1435
      12    H8      21.174406   18.800582   23.176738 H          1 MOL1         0.0948
      13    H9      20.321204   17.260883   23.132999 H          1 MOL1         0.0948
      14    C5      19.009571   18.976266   23.337452 C.3        1 MOL1        -0.1435
      15    H10     19.046188   20.054344   23.133533 H          1 MOL1         0.0948
      16    H11     18.131953   18.584437   22.805218 H          1 MOL1         0.0948
      17    C6      18.796540   18.763726   24.857887 C.3        1 MOL1        -0.1500
      18    H12     18.688921   17.693649   25.080124 H          1 MOL1         0.0948
      19    H13     17.831054   19.217798   25.117466 H          1 MOL1         0.0948
      20    C7      19.903268   19.392065   25.739515 C.3        1 MOL1         0.1162
      21    H14     20.407763   20.167138   25.154447 H          1 MOL1         0.0910
      22    C8      20.944814   18.347631   26.181010 C.3        1 MOL1        -0.2491
      23    H15     20.485405   17.571716   26.806097 H          1 MOL1         0.0959
      24    H16     21.412187   17.854816   25.321876 H          1 MOL1         0.0959
      25    H17     21.743951   18.822298   26.763563 H          1 MOL1         0.0959
      26    N1      19.330335   20.084213   26.945775 N.4        1 MOL1        -0.5987
      27    H18     18.668500   20.819065   26.679344 H          1 MOL1         0.3605
      28    H19     20.064405   20.524610   27.507875 H          1 MOL1         0.3605
      29    H20     18.833386   19.426858   27.553100 H          1 MOL1         0.3605
@<TRIPOS>BOND
    1     1     2    1
    2     1     3    1
    3     1     4    1
    4     1     5    1
    5     5     6    1
    6     5     7    1
    7     5     8    1
    8     8     9    1
    9     8    10    1
   10     8    11    1
   11    11    12    1
   12    11    13    1
   13    11    14    1
   14    14    15    1
   15    14    16    1
   16    14    17    1
   17    17    18    1
   18    17    19    1
   19    17    20    1
   20    20    21    1
   21    20    22    1
   22    22    23    1
   23    22    24    1
   24    22    25    1
   25    20    26    1
   26    26    27    1
   27    26    28    1
   28    26    29    1
@<TRIPOS>SUBSTRUCTURE
       1 MOL1            1 RESIDUE      1      MOL     
@<SCITEGIC>MOL_PROPERTY
VM2 Rank
SciTegic.value.IntegerValue
180

@<SCITEGIC>MOL_PROPERTY
Conf_Id
SciTegic.value.IntegerValue
283

@<SCITEGIC>MOL_PROPERTY
Probability
SciTegic.value.DoubleValue
0.00

@<SCITEGIC>MOL_PROPERTY
Sum Probability
SciTegic.value.DoubleValue
100.00

@<SCITEGIC>MOL_PROPERTY
Delta G
SciTegic.value.DoubleValue
6.452

@<SCITEGIC>MOL_PROPERTY
G
SciTegic.value.DoubleValue
40.154

@<SCITEGIC>MOL_PROPERTY
E
SciTegic.value.DoubleValue
2.270

@<SCITEGIC>MOL_PROPERTY
-TS
SciTegic.value.DoubleValue
37.884

@<SCITEGIC>MOL_PROPERTY
U+W
SciTegic.value.DoubleValue
-21.875

@<SCITEGIC>MOL_PROPERTY
U
SciTegic.value.DoubleValue
30.521

@<SCITEGIC>MOL_PROPERTY
W
SciTegic.value.DoubleValue
-52.395

@<SCITEGIC>MOL_PROPERTY
W(PB)
SciTegic.value.DoubleValue
-54.825

@<SCITEGIC>MOL_PROPERTY
W(SA)
SciTegic.value.DoubleValue
2.429

@<SCITEGIC>MOL_PROPERTY
Valence
SciTegic.value.DoubleValue
9.223

@<SCITEGIC>MOL_PROPERTY
Coulomb
SciTegic.value.DoubleValue
20.067

@<SCITEGIC>MOL_PROPERTY
VdW
SciTegic.value.DoubleValue
1.231

@<SCITEGIC>MOL_PROPERTY
VdW6
SciTegic.value.DoubleValue
-10.587

@<SCITEGIC>MOL_PROPERTY
VdW12
SciTegic.value.DoubleValue
11.818

@<SCITEGIC>MOL_PROPERTY
Bond
SciTegic.value.DoubleValue
0.308

@<SCITEGIC>MOL_PROPERTY
Angle
SciTegic.value.DoubleValue
2.201

@<SCITEGIC>MOL_PROPERTY
Pdih
SciTegic.value.DoubleValue
6.714

@<SCITEGIC>MOL_PROPERTY
Idih
SciTegic.value.DoubleValue
0.000

@<SCITEGIC>MOL_PROPERTY
Tether
SciTegic.value.DoubleValue
0.000

@<TRIPOS>MOLECULE
guest-s15_vm2.mol2 : vm2 ligand conformer 181
          29          28           1
SMALL
USER_CHARGES
 
@<TRIPOS>ATOM
       1    C1      20.743897   20.003917   20.087649 C.3        1 MOL1        -0.2426
       2    H1      20.460640   21.055178   19.947518 H          1 MOL1         0.0959
       3    H2      21.408785   19.946612   20.956311 H          1 MOL1         0.0959
       4    H3      21.321392   19.694740   19.206857 H          1 MOL1         0.0959
       5    C2      19.491093   19.112247   20.252346 C.3        1 MOL1        -0.1410
       6    H4      19.781583   18.055194   20.328405 H          1 MOL1         0.0948
       7    H5      18.894133   19.195973   19.333383 H          1 MOL1         0.0948
       8    C3      18.600780   19.514729   21.456260 C.3        1 MOL1        -0.1435
       9    H6      18.679546   20.594590   21.642707 H          1 MOL1         0.0948
      10    H7      17.552466   19.338806   21.177853 H          1 MOL1         0.0948
      11    C4      18.873249   18.725729   22.762942 C.3        1 MOL1        -0.1435
      12    H8      18.697809   17.656146   22.582658 H          1 MOL1         0.0948
      13    H9      18.124181   19.029802   23.502334 H          1 MOL1         0.0948
      14    C5      20.299679   18.917462   23.336226 C.3        1 MOL1        -0.1435
      15    H10     21.011321   18.447852   22.644731 H          1 MOL1         0.0948
      16    H11     20.560465   19.984156   23.373020 H          1 MOL1         0.0948
      17    C6      20.501414   18.273798   24.733222 C.3        1 MOL1        -0.1500
      18    H12     21.547738   17.947931   24.804793 H          1 MOL1         0.0948
      19    H13     19.895170   17.362788   24.825057 H          1 MOL1         0.0948
      20    C7      20.225131   19.228985   25.917829 C.3        1 MOL1         0.1162
      21    H14     20.863470   20.109825   25.798608 H          1 MOL1         0.0910
      22    C8      20.591138   18.548206   27.246456 C.3        1 MOL1        -0.2491
      23    H15     21.645087   18.243410   27.251609 H          1 MOL1         0.0959
      24    H16     20.439553   19.234049   28.089107 H          1 MOL1         0.0959
      25    H17     19.976463   17.655512   27.417347 H          1 MOL1         0.0959
      26    N1      18.809619   19.730927   25.961070 N.4        1 MOL1        -0.5987
      27    H18     18.666894   20.381822   26.738680 H          1 MOL1         0.3605
      28    H19     18.145523   18.961029   26.077570 H          1 MOL1         0.3605
      29    H20     18.567929   20.223996   25.097076 H          1 MOL1         0.3605
@<TRIPOS>BOND
    1     1     2    1
    2     1     3    1
    3     1     4    1
    4     1     5    1
    5     5     6    1
    6     5     7    1
    7     5     8    1
    8     8     9    1
    9     8    10    1
   10     8    11    1
   11    11    12    1
   12    11    13    1
   13    11    14    1
   14    14    15    1
   15    14    16    1
   16    14    17    1
   17    17    18    1
   18    17    19    1
   19    17    20    1
   20    20    21    1
   21    20    22    1
   22    22    23    1
   23    22    24    1
   24    22    25    1
   25    20    26    1
   26    26    27    1
   27    26    28    1
   28    26    29    1
@<TRIPOS>SUBSTRUCTURE
       1 MOL1            1 RESIDUE      1      MOL     
@<SCITEGIC>MOL_PROPERTY
VM2 Rank
SciTegic.value.IntegerValue
181

@<SCITEGIC>MOL_PROPERTY
Conf_Id
SciTegic.value.IntegerValue
482

@<SCITEGIC>MOL_PROPERTY
Probability
SciTegic.value.DoubleValue
0.00

@<SCITEGIC>MOL_PROPERTY
Sum Probability
SciTegic.value.DoubleValue
100.00

@<SCITEGIC>MOL_PROPERTY
Delta G
SciTegic.value.DoubleValue
6.519

@<SCITEGIC>MOL_PROPERTY
G
SciTegic.value.DoubleValue
40.221

@<SCITEGIC>MOL_PROPERTY
E
SciTegic.value.DoubleValue
2.431

@<SCITEGIC>MOL_PROPERTY
-TS
SciTegic.value.DoubleValue
37.789

@<SCITEGIC>MOL_PROPERTY
U+W
SciTegic.value.DoubleValue
-21.713

@<SCITEGIC>MOL_PROPERTY
U
SciTegic.value.DoubleValue
30.319

@<SCITEGIC>MOL_PROPERTY
W
SciTegic.value.DoubleValue
-52.032

@<SCITEGIC>MOL_PROPERTY
W(PB)
SciTegic.value.DoubleValue
-54.489

@<SCITEGIC>MOL_PROPERTY
W(SA)
SciTegic.value.DoubleValue
2.457

@<SCITEGIC>MOL_PROPERTY
Valence
SciTegic.value.DoubleValue
8.319

@<SCITEGIC>MOL_PROPERTY
Coulomb
SciTegic.value.DoubleValue
20.774

@<SCITEGIC>MOL_PROPERTY
VdW
SciTegic.value.DoubleValue
1.226

@<SCITEGIC>MOL_PROPERTY
VdW6
SciTegic.value.DoubleValue
-10.363

@<SCITEGIC>MOL_PROPERTY
VdW12
SciTegic.value.DoubleValue
11.589

@<SCITEGIC>MOL_PROPERTY
Bond
SciTegic.value.DoubleValue
0.335

@<SCITEGIC>MOL_PROPERTY
Angle
SciTegic.value.DoubleValue
2.135

@<SCITEGIC>MOL_PROPERTY
Pdih
SciTegic.value.DoubleValue
5.849

@<SCITEGIC>MOL_PROPERTY
Idih
SciTegic.value.DoubleValue
0.000

@<SCITEGIC>MOL_PROPERTY
Tether
SciTegic.value.DoubleValue
0.000

@<TRIPOS>MOLECULE
guest-s15_vm2.mol2 : vm2 ligand conformer 182
          29          28           1
SMALL
USER_CHARGES
 
@<TRIPOS>ATOM
       1    C1      19.519988   21.121236   21.104632 C.3        1 MOL1        -0.2426
       2    H1      20.078035   21.639905   21.895010 H          1 MOL1         0.0959
       3    H2      20.127508   21.137105   20.190364 H          1 MOL1         0.0959
       4    H3      18.602653   21.691802   20.909843 H          1 MOL1         0.0959
       5    C2      19.183470   19.674213   21.521086 C.3        1 MOL1        -0.1410
       6    H4      18.593203   19.195516   20.727208 H          1 MOL1         0.0948
       7    H5      18.542224   19.692002   22.410318 H          1 MOL1         0.0948
       8    C3      20.462221   18.842528   21.782368 C.3        1 MOL1        -0.1435
       9    H6      20.999134   18.738526   20.829302 H          1 MOL1         0.0948
      10    H7      21.149214   19.375601   22.452876 H          1 MOL1         0.0948
      11    C4      20.162029   17.427575   22.338003 C.3        1 MOL1        -0.1435
      12    H8      20.863007   16.724451   21.867142 H          1 MOL1         0.0948
      13    H9      19.162713   17.098553   22.021157 H          1 MOL1         0.0948
      14    C5      20.311133   17.268290   23.875294 C.3        1 MOL1        -0.1435
      15    H10     20.151107   16.206207   24.106870 H          1 MOL1         0.0948
      16    H11     21.347264   17.471740   24.171618 H          1 MOL1         0.0948
      17    C6      19.314577   18.089673   24.738708 C.3        1 MOL1        -0.1500
      18    H12     19.218906   17.604020   25.718931 H          1 MOL1         0.0948
      19    H13     18.319574   18.028186   24.279181 H          1 MOL1         0.0948
      20    C7      19.689015   19.574314   24.969664 C.3        1 MOL1         0.1162
      21    H14     19.879774   20.045588   24.003122 H          1 MOL1         0.0910
      22    C8      20.949841   19.728608   25.839065 C.3        1 MOL1        -0.2491
      23    H15     20.829603   19.224569   26.806091 H          1 MOL1         0.0959
      24    H16     21.833613   19.312748   25.342695 H          1 MOL1         0.0959
      25    H17     21.157334   20.788259   26.032501 H          1 MOL1         0.0959
      26    N1      18.543726   20.329564   25.585181 N.4        1 MOL1        -0.5987
      27    H18     17.701687   20.279119   25.004771 H          1 MOL1         0.3605
      28    H19     18.771857   21.320407   25.707147 H          1 MOL1         0.3605
      29    H20     18.304177   19.956341   26.507775 H          1 MOL1         0.3605
@<TRIPOS>BOND
    1     1     2    1
    2     1     3    1
    3     1     4    1
    4     1     5    1
    5     5     6    1
    6     5     7    1
    7     5     8    1
    8     8     9    1
    9     8    10    1
   10     8    11    1
   11    11    12    1
   12    11    13    1
   13    11    14    1
   14    14    15    1
   15    14    16    1
   16    14    17    1
   17    17    18    1
   18    17    19    1
   19    17    20    1
   20    20    21    1
   21    20    22    1
   22    22    23    1
   23    22    24    1
   24    22    25    1
   25    20    26    1
   26    26    27    1
   27    26    28    1
   28    26    29    1
@<TRIPOS>SUBSTRUCTURE
       1 MOL1            1 RESIDUE      1      MOL     
@<SCITEGIC>MOL_PROPERTY
VM2 Rank
SciTegic.value.IntegerValue
182

@<SCITEGIC>MOL_PROPERTY
Conf_Id
SciTegic.value.IntegerValue
24

@<SCITEGIC>MOL_PROPERTY
Probability
SciTegic.value.DoubleValue
0.00

@<SCITEGIC>MOL_PROPERTY
Sum Probability
SciTegic.value.DoubleValue
100.00

@<SCITEGIC>MOL_PROPERTY
Delta G
SciTegic.value.DoubleValue
6.526

@<SCITEGIC>MOL_PROPERTY
G
SciTegic.value.DoubleValue
40.228

@<SCITEGIC>MOL_PROPERTY
E
SciTegic.value.DoubleValue
1.928

@<SCITEGIC>MOL_PROPERTY
-TS
SciTegic.value.DoubleValue
38.300

@<SCITEGIC>MOL_PROPERTY
U+W
SciTegic.value.DoubleValue
-22.216

@<SCITEGIC>MOL_PROPERTY
U
SciTegic.value.DoubleValue
30.677

@<SCITEGIC>MOL_PROPERTY
W
SciTegic.value.DoubleValue
-52.893

@<SCITEGIC>MOL_PROPERTY
W(PB)
SciTegic.value.DoubleValue
-55.271

@<SCITEGIC>MOL_PROPERTY
W(SA)
SciTegic.value.DoubleValue
2.378

@<SCITEGIC>MOL_PROPERTY
Valence
SciTegic.value.DoubleValue
8.876

@<SCITEGIC>MOL_PROPERTY
Coulomb
SciTegic.value.DoubleValue
21.329

@<SCITEGIC>MOL_PROPERTY
VdW
SciTegic.value.DoubleValue
0.472

@<SCITEGIC>MOL_PROPERTY
VdW6
SciTegic.value.DoubleValue
-11.982

@<SCITEGIC>MOL_PROPERTY
VdW12
SciTegic.value.DoubleValue
12.454

@<SCITEGIC>MOL_PROPERTY
Bond
SciTegic.value.DoubleValue
0.338

@<SCITEGIC>MOL_PROPERTY
Angle
SciTegic.value.DoubleValue
2.799

@<SCITEGIC>MOL_PROPERTY
Pdih
SciTegic.value.DoubleValue
5.739

@<SCITEGIC>MOL_PROPERTY
Idih
SciTegic.value.DoubleValue
0.000

@<SCITEGIC>MOL_PROPERTY
Tether
SciTegic.value.DoubleValue
0.000

@<TRIPOS>MOLECULE
guest-s15_vm2.mol2 : vm2 ligand conformer 183
          29          28           1
SMALL
USER_CHARGES
 
@<TRIPOS>ATOM
       1    C1      18.471533   18.097813   21.432993 C.3        1 MOL1        -0.2426
       2    H1      17.374819   18.140230   21.419837 H          1 MOL1         0.0959
       3    H2      18.782215   17.296135   20.750533 H          1 MOL1         0.0959
       4    H3      18.782823   17.815602   22.443980 H          1 MOL1         0.0959
       5    C2      19.071868   19.454363   20.996388 C.3        1 MOL1        -0.1410
       6    H4      18.678498   20.271834   21.615307 H          1 MOL1         0.0948
       7    H5      18.724982   19.661138   19.974259 H          1 MOL1         0.0948
       8    C3      20.621182   19.469551   21.002109 C.3        1 MOL1        -0.1435
       9    H6      21.010749   18.464633   20.788884 H          1 MOL1         0.0948
      10    H7      20.953145   20.095378   20.162162 H          1 MOL1         0.0948
      11    C4      21.284474   20.036245   22.286679 C.3        1 MOL1        -0.1435
      12    H8      20.970762   21.077305   22.443821 H          1 MOL1         0.0948
      13    H9      22.366081   20.083397   22.098783 H          1 MOL1         0.0948
      14    C5      21.065411   19.206237   23.577709 C.3        1 MOL1        -0.1435
      15    H10     20.957883   18.145605   23.319333 H          1 MOL1         0.0948
      16    H11     21.974831   19.276005   24.190500 H          1 MOL1         0.0948
      17    C6      19.873695   19.706844   24.436089 C.3        1 MOL1        -0.1500
      18    H12     18.936430   19.648813   23.872048 H          1 MOL1         0.0948
      19    H13     20.031848   20.770626   24.656870 H          1 MOL1         0.0948
      20    C7      19.715745   18.951327   25.775048 C.3        1 MOL1         0.1162
      21    H14     20.679505   18.966048   26.293260 H          1 MOL1         0.0910
      22    C8      19.294493   17.485477   25.567438 C.3        1 MOL1        -0.2491
      23    H15     19.153860   16.984479   26.533124 H          1 MOL1         0.0959
      24    H16     18.351805   17.418522   25.010337 H          1 MOL1         0.0959
      25    H17     20.058804   16.922922   25.019385 H          1 MOL1         0.0959
      26    N1      18.737600   19.648144   26.679547 N.4        1 MOL1        -0.5987
      27    H18     19.021049   20.613938   26.868641 H          1 MOL1         0.3605
      28    H19     18.659120   19.171712   27.582624 H          1 MOL1         0.3605
      29    H20     17.801379   19.676996   26.266878 H          1 MOL1         0.3605
@<TRIPOS>BOND
    1     1     2    1
    2     1     3    1
    3     1     4    1
    4     1     5    1
    5     5     6    1
    6     5     7    1
    7     5     8    1
    8     8     9    1
    9     8    10    1
   10     8    11    1
   11    11    12    1
   12    11    13    1
   13    11    14    1
   14    14    15    1
   15    14    16    1
   16    14    17    1
   17    17    18    1
   18    17    19    1
   19    17    20    1
   20    20    21    1
   21    20    22    1
   22    22    23    1
   23    22    24    1
   24    22    25    1
   25    20    26    1
   26    26    27    1
   27    26    28    1
   28    26    29    1
@<TRIPOS>SUBSTRUCTURE
       1 MOL1            1 RESIDUE      1      MOL     
@<SCITEGIC>MOL_PROPERTY
VM2 Rank
SciTegic.value.IntegerValue
183

@<SCITEGIC>MOL_PROPERTY
Conf_Id
SciTegic.value.IntegerValue
78

@<SCITEGIC>MOL_PROPERTY
Probability
SciTegic.value.DoubleValue
0.00

@<SCITEGIC>MOL_PROPERTY
Sum Probability
SciTegic.value.DoubleValue
100.00

@<SCITEGIC>MOL_PROPERTY
Delta G
SciTegic.value.DoubleValue
6.628

@<SCITEGIC>MOL_PROPERTY
G
SciTegic.value.DoubleValue
40.330

@<SCITEGIC>MOL_PROPERTY
E
SciTegic.value.DoubleValue
1.888

@<SCITEGIC>MOL_PROPERTY
-TS
SciTegic.value.DoubleValue
38.442

@<SCITEGIC>MOL_PROPERTY
U+W
SciTegic.value.DoubleValue
-22.257

@<SCITEGIC>MOL_PROPERTY
U
SciTegic.value.DoubleValue
30.536

@<SCITEGIC>MOL_PROPERTY
W
SciTegic.value.DoubleValue
-52.792

@<SCITEGIC>MOL_PROPERTY
W(PB)
SciTegic.value.DoubleValue
-55.156

@<SCITEGIC>MOL_PROPERTY
W(SA)
SciTegic.value.DoubleValue
2.364

@<SCITEGIC>MOL_PROPERTY
Valence
SciTegic.value.DoubleValue
9.319

@<SCITEGIC>MOL_PROPERTY
Coulomb
SciTegic.value.DoubleValue
20.399

@<SCITEGIC>MOL_PROPERTY
VdW
SciTegic.value.DoubleValue
0.817

@<SCITEGIC>MOL_PROPERTY
VdW6
SciTegic.value.DoubleValue
-11.400

@<SCITEGIC>MOL_PROPERTY
VdW12
SciTegic.value.DoubleValue
12.217

@<SCITEGIC>MOL_PROPERTY
Bond
SciTegic.value.DoubleValue
0.345

@<SCITEGIC>MOL_PROPERTY
Angle
SciTegic.value.DoubleValue
2.705

@<SCITEGIC>MOL_PROPERTY
Pdih
SciTegic.value.DoubleValue
6.269

@<SCITEGIC>MOL_PROPERTY
Idih
SciTegic.value.DoubleValue
0.000

@<SCITEGIC>MOL_PROPERTY
Tether
SciTegic.value.DoubleValue
0.000

@<TRIPOS>MOLECULE
guest-s15_vm2.mol2 : vm2 ligand conformer 184
          29          28           1
SMALL
USER_CHARGES
 
@<TRIPOS>ATOM
       1    C1      20.907386   19.171341   20.303505 C.3        1 MOL1        -0.2426
       2    H1      21.984089   19.119251   20.096370 H          1 MOL1         0.0959
       3    H2      20.507291   18.152565   20.233885 H          1 MOL1         0.0959
       4    H3      20.443654   19.775021   19.512608 H          1 MOL1         0.0959
       5    C2      20.654000   19.792094   21.696298 C.3        1 MOL1        -0.1410
       6    H4      21.138382   20.777813   21.732820 H          1 MOL1         0.0948
       7    H5      21.145568   19.178600   22.460905 H          1 MOL1         0.0948
       8    C3      19.147020   19.966330   22.016508 C.3        1 MOL1        -0.1435
       9    H6      19.017740   20.662594   22.855472 H          1 MOL1         0.0948
      10    H7      18.669445   20.458717   21.158151 H          1 MOL1         0.0948
      11    C4      18.395500   18.641672   22.314691 C.3        1 MOL1        -0.1435
      12    H8      18.872010   17.799190   21.797848 H          1 MOL1         0.0948
      13    H9      17.391033   18.720038   21.876311 H          1 MOL1         0.0948
      14    C5      18.216484   18.298234   23.818027 C.3        1 MOL1        -0.1435
      15    H10     17.631541   19.083374   24.313785 H          1 MOL1         0.0948
      16    H11     17.592747   17.395268   23.872268 H          1 MOL1         0.0948
      17    C6      19.527275   18.011096   24.598496 C.3        1 MOL1        -0.1500
      18    H12     20.206212   17.432067   23.958796 H          1 MOL1         0.0948
      19    H13     19.293022   17.360972   25.451934 H          1 MOL1         0.0948
      20    C7      20.248589   19.269641   25.133166 C.3        1 MOL1         0.1162
      21    H14     20.419173   19.957670   24.302196 H          1 MOL1         0.0910
      22    C8      21.614378   18.889502   25.726154 C.3        1 MOL1        -0.2491
      23    H15     22.244867   18.401960   24.972168 H          1 MOL1         0.0959
      24    H16     22.146846   19.781662   26.078176 H          1 MOL1         0.0959
      25    H17     21.501768   18.201812   26.573706 H          1 MOL1         0.0959
      26    N1      19.425368   20.016091   26.147155 N.4        1 MOL1        -0.5987
      27    H18     18.527474   20.312345   25.755528 H          1 MOL1         0.3605
      28    H19     19.909074   20.856173   26.477132 H          1 MOL1         0.3605
      29    H20     19.227528   19.435190   26.966281 H          1 MOL1         0.3605
@<TRIPOS>BOND
    1     1     2    1
    2     1     3    1
    3     1     4    1
    4     1     5    1
    5     5     6    1
    6     5     7    1
    7     5     8    1
    8     8     9    1
    9     8    10    1
   10     8    11    1
   11    11    12    1
   12    11    13    1
   13    11    14    1
   14    14    15    1
   15    14    16    1
   16    14    17    1
   17    17    18    1
   18    17    19    1
   19    17    20    1
   20    20    21    1
   21    20    22    1
   22    22    23    1
   23    22    24    1
   24    22    25    1
   25    20    26    1
   26    26    27    1
   27    26    28    1
   28    26    29    1
@<TRIPOS>SUBSTRUCTURE
       1 MOL1            1 RESIDUE      1      MOL     
@<SCITEGIC>MOL_PROPERTY
VM2 Rank
SciTegic.value.IntegerValue
184

@<SCITEGIC>MOL_PROPERTY
Conf_Id
SciTegic.value.IntegerValue
1051

@<SCITEGIC>MOL_PROPERTY
Probability
SciTegic.value.DoubleValue
0.00

@<SCITEGIC>MOL_PROPERTY
Sum Probability
SciTegic.value.DoubleValue
100.00

@<SCITEGIC>MOL_PROPERTY
Delta G
SciTegic.value.DoubleValue
6.643

@<SCITEGIC>MOL_PROPERTY
G
SciTegic.value.DoubleValue
40.345

@<SCITEGIC>MOL_PROPERTY
E
SciTegic.value.DoubleValue
1.950

@<SCITEGIC>MOL_PROPERTY
-TS
SciTegic.value.DoubleValue
38.395

@<SCITEGIC>MOL_PROPERTY
U+W
SciTegic.value.DoubleValue
-22.195

@<SCITEGIC>MOL_PROPERTY
U
SciTegic.value.DoubleValue
30.560

@<SCITEGIC>MOL_PROPERTY
W
SciTegic.value.DoubleValue
-52.755

@<SCITEGIC>MOL_PROPERTY
W(PB)
SciTegic.value.DoubleValue
-55.119

@<SCITEGIC>MOL_PROPERTY
W(SA)
SciTegic.value.DoubleValue
2.365

@<SCITEGIC>MOL_PROPERTY
Valence
SciTegic.value.DoubleValue
8.892

@<SCITEGIC>MOL_PROPERTY
Coulomb
SciTegic.value.DoubleValue
21.063

@<SCITEGIC>MOL_PROPERTY
VdW
SciTegic.value.DoubleValue
0.604

@<SCITEGIC>MOL_PROPERTY
VdW6
SciTegic.value.DoubleValue
-12.045

@<SCITEGIC>MOL_PROPERTY
VdW12
SciTegic.value.DoubleValue
12.649

@<SCITEGIC>MOL_PROPERTY
Bond
SciTegic.value.DoubleValue
0.360

@<SCITEGIC>MOL_PROPERTY
Angle
SciTegic.value.DoubleValue
2.555

@<SCITEGIC>MOL_PROPERTY
Pdih
SciTegic.value.DoubleValue
5.977

@<SCITEGIC>MOL_PROPERTY
Idih
SciTegic.value.DoubleValue
0.000

@<SCITEGIC>MOL_PROPERTY
Tether
SciTegic.value.DoubleValue
0.000

@<TRIPOS>MOLECULE
guest-s15_vm2.mol2 : vm2 ligand conformer 185
          29          28           1
SMALL
USER_CHARGES
 
@<TRIPOS>ATOM
       1    C1      18.683605   20.250360   20.582182 C.3        1 MOL1        -0.2426
       2    H1      18.843055   20.856688   21.480557 H          1 MOL1         0.0959
       3    H2      19.283744   20.684323   19.771895 H          1 MOL1         0.0959
       4    H3      17.626855   20.343724   20.300337 H          1 MOL1         0.0959
       5    C2      19.054297   18.766048   20.807715 C.3        1 MOL1        -0.1410
       6    H4      18.855341   18.221754   19.873899 H          1 MOL1         0.0948
       7    H5      18.395198   18.318334   21.564460 H          1 MOL1         0.0948
       8    C3      20.540843   18.556574   21.195159 C.3        1 MOL1        -0.1435
       9    H6      20.891636   17.631375   20.717342 H          1 MOL1         0.0948
      10    H7      21.161124   19.359840   20.774252 H          1 MOL1         0.0948
      11    C4      20.801465   18.422793   22.717562 C.3        1 MOL1        -0.1435
      12    H8      21.868723   18.206042   22.862140 H          1 MOL1         0.0948
      13    H9      20.261269   17.546793   23.094954 H          1 MOL1         0.0948
      14    C5      20.428913   19.683351   23.538111 C.3        1 MOL1        -0.1435
      15    H10     20.926152   20.548044   23.077529 H          1 MOL1         0.0948
      16    H11     19.351915   19.876319   23.472046 H          1 MOL1         0.0948
      17    C6      20.866159   19.606875   25.028004 C.3        1 MOL1        -0.1500
      18    H12     21.158912   20.614270   25.351932 H          1 MOL1         0.0948
      19    H13     21.775810   18.999356   25.121395 H          1 MOL1         0.0948
      20    C7      19.800343   19.091600   26.026946 C.3        1 MOL1         0.1162
      21    H14     20.266660   19.084304   27.017001 H          1 MOL1         0.0910
      22    C8      19.337941   17.657308   25.724734 C.3        1 MOL1        -0.2491
      23    H15     20.197413   16.984958   25.612079 H          1 MOL1         0.0959
      24    H16     18.720658   17.273618   26.546221 H          1 MOL1         0.0959
      25    H17     18.736923   17.613900   24.808863 H          1 MOL1         0.0959
      26    N1      18.622435   20.021091   26.133587 N.4        1 MOL1        -0.5987
      27    H18     18.116544   20.083679   25.246771 H          1 MOL1         0.3605
      28    H19     18.914075   20.968582   26.390333 H          1 MOL1         0.3605
      29    H20     17.958342   19.702185   26.844881 H          1 MOL1         0.3605
@<TRIPOS>BOND
    1     1     2    1
    2     1     3    1
    3     1     4    1
    4     1     5    1
    5     5     6    1
    6     5     7    1
    7     5     8    1
    8     8     9    1
    9     8    10    1
   10     8    11    1
   11    11    12    1
   12    11    13    1
   13    11    14    1
   14    14    15    1
   15    14    16    1
   16    14    17    1
   17    17    18    1
   18    17    19    1
   19    17    20    1
   20    20    21    1
   21    20    22    1
   22    22    23    1
   23    22    24    1
   24    22    25    1
   25    20    26    1
   26    26    27    1
   27    26    28    1
   28    26    29    1
@<TRIPOS>SUBSTRUCTURE
       1 MOL1            1 RESIDUE      1      MOL     
@<SCITEGIC>MOL_PROPERTY
VM2 Rank
SciTegic.value.IntegerValue
185

@<SCITEGIC>MOL_PROPERTY
Conf_Id
SciTegic.value.IntegerValue
972

@<SCITEGIC>MOL_PROPERTY
Probability
SciTegic.value.DoubleValue
0.00

@<SCITEGIC>MOL_PROPERTY
Sum Probability
SciTegic.value.DoubleValue
100.00

@<SCITEGIC>MOL_PROPERTY
Delta G
SciTegic.value.DoubleValue
6.647

@<SCITEGIC>MOL_PROPERTY
G
SciTegic.value.DoubleValue
40.349

@<SCITEGIC>MOL_PROPERTY
E
SciTegic.value.DoubleValue
2.326

@<SCITEGIC>MOL_PROPERTY
-TS
SciTegic.value.DoubleValue
38.023

@<SCITEGIC>MOL_PROPERTY
U+W
SciTegic.value.DoubleValue
-21.819

@<SCITEGIC>MOL_PROPERTY
U
SciTegic.value.DoubleValue
30.956

@<SCITEGIC>MOL_PROPERTY
W
SciTegic.value.DoubleValue
-52.775

@<SCITEGIC>MOL_PROPERTY
W(PB)
SciTegic.value.DoubleValue
-55.160

@<SCITEGIC>MOL_PROPERTY
W(SA)
SciTegic.value.DoubleValue
2.385

@<SCITEGIC>MOL_PROPERTY
Valence
SciTegic.value.DoubleValue
9.252

@<SCITEGIC>MOL_PROPERTY
Coulomb
SciTegic.value.DoubleValue
20.527

@<SCITEGIC>MOL_PROPERTY
VdW
SciTegic.value.DoubleValue
1.177

@<SCITEGIC>MOL_PROPERTY
VdW6
SciTegic.value.DoubleValue
-11.186

@<SCITEGIC>MOL_PROPERTY
VdW12
SciTegic.value.DoubleValue
12.363

@<SCITEGIC>MOL_PROPERTY
Bond
SciTegic.value.DoubleValue
0.373

@<SCITEGIC>MOL_PROPERTY
Angle
SciTegic.value.DoubleValue
2.560

@<SCITEGIC>MOL_PROPERTY
Pdih
SciTegic.value.DoubleValue
6.320

@<SCITEGIC>MOL_PROPERTY
Idih
SciTegic.value.DoubleValue
0.000

@<SCITEGIC>MOL_PROPERTY
Tether
SciTegic.value.DoubleValue
0.000

@<TRIPOS>MOLECULE
guest-s15_vm2.mol2 : vm2 ligand conformer 186
          29          28           1
SMALL
USER_CHARGES
 
@<TRIPOS>ATOM
       1    C1      20.416565   20.096210   20.245556 C.3        1 MOL1        -0.2426
       2    H1      20.407425   20.717425   19.340659 H          1 MOL1         0.0959
       3    H2      20.546928   20.767512   21.103465 H          1 MOL1         0.0959
       4    H3      21.287167   19.430325   20.186890 H          1 MOL1         0.0959
       5    C2      19.105106   19.288789   20.359122 C.3        1 MOL1        -0.1410
       6    H4      18.943456   18.744753   19.418069 H          1 MOL1         0.0948
       7    H5      18.258347   19.982112   20.459029 H          1 MOL1         0.0948
       8    C3      19.081978   18.270334   21.527429 C.3        1 MOL1        -0.1435
       9    H6      18.129242   17.725721   21.471876 H          1 MOL1         0.0948
      10    H7      19.864784   17.512676   21.384619 H          1 MOL1         0.0948
      11    C4      19.196147   18.904227   22.938135 C.3        1 MOL1        -0.1435
      12    H8      18.559537   18.324223   23.617314 H          1 MOL1         0.0948
      13    H9      18.793023   19.926068   22.922422 H          1 MOL1         0.0948
      14    C5      20.642625   18.898710   23.494596 C.3        1 MOL1        -0.1435
      15    H10     20.963880   17.863186   23.668631 H          1 MOL1         0.0948
      16    H11     21.328044   19.289374   22.733239 H          1 MOL1         0.0948
      17    C6      20.843273   19.741781   24.785335 C.3        1 MOL1        -0.1500
      18    H12     20.628892   20.795884   24.565873 H          1 MOL1         0.0948
      19    H13     21.910260   19.709626   25.042252 H          1 MOL1         0.0948
      20    C7      20.046871   19.318504   26.045967 C.3        1 MOL1         0.1162
      21    H14     20.466767   19.878712   26.887120 H          1 MOL1         0.0910
      22    C8      20.206089   17.822299   26.367033 C.3        1 MOL1        -0.2491
      23    H15     19.722913   17.192080   25.610907 H          1 MOL1         0.0959
      24    H16     21.266730   17.546737   26.418472 H          1 MOL1         0.0959
      25    H17     19.753578   17.587661   27.338255 H          1 MOL1         0.0959
      26    N1      18.597347   19.715145   25.990827 N.4        1 MOL1        -0.5987
      27    H18     18.490671   20.724037   25.851486 H          1 MOL1         0.3605
      28    H19     18.110856   19.473205   26.858890 H          1 MOL1         0.3605
      29    H20     18.113239   19.244663   25.223429 H          1 MOL1         0.3605
@<TRIPOS>BOND
    1     1     2    1
    2     1     3    1
    3     1     4    1
    4     1     5    1
    5     5     6    1
    6     5     7    1
    7     5     8    1
    8     8     9    1
    9     8    10    1
   10     8    11    1
   11    11    12    1
   12    11    13    1
   13    11    14    1
   14    14    15    1
   15    14    16    1
   16    14    17    1
   17    17    18    1
   18    17    19    1
   19    17    20    1
   20    20    21    1
   21    20    22    1
   22    22    23    1
   23    22    24    1
   24    22    25    1
   25    20    26    1
   26    26    27    1
   27    26    28    1
   28    26    29    1
@<TRIPOS>SUBSTRUCTURE
       1 MOL1            1 RESIDUE      1      MOL     
@<SCITEGIC>MOL_PROPERTY
VM2 Rank
SciTegic.value.IntegerValue
186

@<SCITEGIC>MOL_PROPERTY
Conf_Id
SciTegic.value.IntegerValue
208

@<SCITEGIC>MOL_PROPERTY
Probability
SciTegic.value.DoubleValue
0.00

@<SCITEGIC>MOL_PROPERTY
Sum Probability
SciTegic.value.DoubleValue
100.00

@<SCITEGIC>MOL_PROPERTY
Delta G
SciTegic.value.DoubleValue
6.697

@<SCITEGIC>MOL_PROPERTY
G
SciTegic.value.DoubleValue
40.398

@<SCITEGIC>MOL_PROPERTY
E
SciTegic.value.DoubleValue
1.999

@<SCITEGIC>MOL_PROPERTY
-TS
SciTegic.value.DoubleValue
38.399

@<SCITEGIC>MOL_PROPERTY
U+W
SciTegic.value.DoubleValue
-22.145

@<SCITEGIC>MOL_PROPERTY
U
SciTegic.value.DoubleValue
30.458

@<SCITEGIC>MOL_PROPERTY
W
SciTegic.value.DoubleValue
-52.603

@<SCITEGIC>MOL_PROPERTY
W(PB)
SciTegic.value.DoubleValue
-55.023

@<SCITEGIC>MOL_PROPERTY
W(SA)
SciTegic.value.DoubleValue
2.420

@<SCITEGIC>MOL_PROPERTY
Valence
SciTegic.value.DoubleValue
8.067

@<SCITEGIC>MOL_PROPERTY
Coulomb
SciTegic.value.DoubleValue
21.369

@<SCITEGIC>MOL_PROPERTY
VdW
SciTegic.value.DoubleValue
1.022

@<SCITEGIC>MOL_PROPERTY
VdW6
SciTegic.value.DoubleValue
-11.649

@<SCITEGIC>MOL_PROPERTY
VdW12
SciTegic.value.DoubleValue
12.671

@<SCITEGIC>MOL_PROPERTY
Bond
SciTegic.value.DoubleValue
0.379

@<SCITEGIC>MOL_PROPERTY
Angle
SciTegic.value.DoubleValue
2.831

@<SCITEGIC>MOL_PROPERTY
Pdih
SciTegic.value.DoubleValue
4.858

@<SCITEGIC>MOL_PROPERTY
Idih
SciTegic.value.DoubleValue
0.000

@<SCITEGIC>MOL_PROPERTY
Tether
SciTegic.value.DoubleValue
0.000

@<TRIPOS>MOLECULE
guest-s15_vm2.mol2 : vm2 ligand conformer 187
          29          28           1
SMALL
USER_CHARGES
 
@<TRIPOS>ATOM
       1    C1      19.824432   20.533982   20.156064 C.3        1 MOL1        -0.2426
       2    H1      19.214822   20.947002   19.342015 H          1 MOL1         0.0959
       3    H2      19.518151   21.030312   21.083249 H          1 MOL1         0.0959
       4    H3      20.870140   20.802778   19.957932 H          1 MOL1         0.0959
       5    C2      19.654238   18.998781   20.232624 C.3        1 MOL1        -0.1410
       6    H4      19.943249   18.578399   19.259172 H          1 MOL1         0.0948
       7    H5      18.595855   18.738128   20.371943 H          1 MOL1         0.0948
       8    C3      20.522095   18.334646   21.332518 C.3        1 MOL1        -0.1435
       9    H6      20.840259   17.348874   20.965935 H          1 MOL1         0.0948
      10    H7      21.447916   18.906606   21.483462 H          1 MOL1         0.0948
      11    C4      19.803093   18.116005   22.688654 C.3        1 MOL1        -0.1435
      12    H8      20.480266   17.557962   23.346351 H          1 MOL1         0.0948
      13    H9      18.931319   17.464952   22.536045 H          1 MOL1         0.0948
      14    C5      19.347926   19.421728   23.386567 C.3        1 MOL1        -0.1435
      15    H10     20.161697   20.159853   23.392053 H          1 MOL1         0.0948
      16    H11     18.534315   19.861153   22.794830 H          1 MOL1         0.0948
      17    C6      18.824036   19.195938   24.829537 C.3        1 MOL1        -0.1500
      18    H12     18.425762   18.178109   24.935794 H          1 MOL1         0.0948
      19    H13     17.970233   19.868656   24.985126 H          1 MOL1         0.0948
      20    C7      19.855330   19.487374   25.946218 C.3        1 MOL1         0.1162
      21    H14     20.194604   20.521674   25.833596 H          1 MOL1         0.0910
      22    C8      21.087058   18.569000   25.876904 C.3        1 MOL1        -0.2491
      23    H15     20.796583   17.511504   25.906150 H          1 MOL1         0.0959
      24    H16     21.660593   18.748226   24.960010 H          1 MOL1         0.0959
      25    H17     21.760359   18.760632   26.721423 H          1 MOL1         0.0959
      26    N1      19.217791   19.398547   27.304915 N.4        1 MOL1        -0.5987
      27    H18     18.423197   20.038851   27.391410 H          1 MOL1         0.3605
      28    H19     19.882909   19.636580   28.046271 H          1 MOL1         0.3605
      29    H20     18.873687   18.453499   27.495135 H          1 MOL1         0.3605
@<TRIPOS>BOND
    1     1     2    1
    2     1     3    1
    3     1     4    1
    4     1     5    1
    5     5     6    1
    6     5     7    1
    7     5     8    1
    8     8     9    1
    9     8    10    1
   10     8    11    1
   11    11    12    1
   12    11    13    1
   13    11    14    1
   14    14    15    1
   15    14    16    1
   16    14    17    1
   17    17    18    1
   18    17    19    1
   19    17    20    1
   20    20    21    1
   21    20    22    1
   22    22    23    1
   23    22    24    1
   24    22    25    1
   25    20    26    1
   26    26    27    1
   27    26    28    1
   28    26    29    1
@<TRIPOS>SUBSTRUCTURE
       1 MOL1            1 RESIDUE      1      MOL     
@<SCITEGIC>MOL_PROPERTY
VM2 Rank
SciTegic.value.IntegerValue
187

@<SCITEGIC>MOL_PROPERTY
Conf_Id
SciTegic.value.IntegerValue
70

@<SCITEGIC>MOL_PROPERTY
Probability
SciTegic.value.DoubleValue
0.00

@<SCITEGIC>MOL_PROPERTY
Sum Probability
SciTegic.value.DoubleValue
100.00

@<SCITEGIC>MOL_PROPERTY
Delta G
SciTegic.value.DoubleValue
6.701

@<SCITEGIC>MOL_PROPERTY
G
SciTegic.value.DoubleValue
40.403

@<SCITEGIC>MOL_PROPERTY
E
SciTegic.value.DoubleValue
2.337

@<SCITEGIC>MOL_PROPERTY
-TS
SciTegic.value.DoubleValue
38.066

@<SCITEGIC>MOL_PROPERTY
U+W
SciTegic.value.DoubleValue
-21.808

@<SCITEGIC>MOL_PROPERTY
U
SciTegic.value.DoubleValue
30.372

@<SCITEGIC>MOL_PROPERTY
W
SciTegic.value.DoubleValue
-52.180

@<SCITEGIC>MOL_PROPERTY
W(PB)
SciTegic.value.DoubleValue
-54.600

@<SCITEGIC>MOL_PROPERTY
W(SA)
SciTegic.value.DoubleValue
2.420

@<SCITEGIC>MOL_PROPERTY
Valence
SciTegic.value.DoubleValue
9.265

@<SCITEGIC>MOL_PROPERTY
Coulomb
SciTegic.value.DoubleValue
19.847

@<SCITEGIC>MOL_PROPERTY
VdW
SciTegic.value.DoubleValue
1.260

@<SCITEGIC>MOL_PROPERTY
VdW6
SciTegic.value.DoubleValue
-10.647

@<SCITEGIC>MOL_PROPERTY
VdW12
SciTegic.value.DoubleValue
11.907

@<SCITEGIC>MOL_PROPERTY
Bond
SciTegic.value.DoubleValue
0.333

@<SCITEGIC>MOL_PROPERTY
Angle
SciTegic.value.DoubleValue
2.435

@<SCITEGIC>MOL_PROPERTY
Pdih
SciTegic.value.DoubleValue
6.497

@<SCITEGIC>MOL_PROPERTY
Idih
SciTegic.value.DoubleValue
0.000

@<SCITEGIC>MOL_PROPERTY
Tether
SciTegic.value.DoubleValue
0.000

@<TRIPOS>MOLECULE
guest-s15_vm2.mol2 : vm2 ligand conformer 188
          29          28           1
SMALL
USER_CHARGES
 
@<TRIPOS>ATOM
       1    C1      18.982971   20.426122   20.403533 C.3        1 MOL1        -0.2426
       2    H1      17.924190   20.166426   20.274905 H          1 MOL1         0.0959
       3    H2      19.086177   20.961745   21.353419 H          1 MOL1         0.0959
       4    H3      19.254874   21.121984   19.599342 H          1 MOL1         0.0959
       5    C2      19.872017   19.161939   20.347174 C.3        1 MOL1        -0.1410
       6    H4      20.933451   19.437753   20.416485 H          1 MOL1         0.0948
       7    H5      19.743285   18.702841   19.356968 H          1 MOL1         0.0948
       8    C3      19.517265   18.108336   21.427946 C.3        1 MOL1        -0.1435
       9    H6      18.446542   18.156845   21.669291 H          1 MOL1         0.0948
      10    H7      19.677794   17.110691   20.996342 H          1 MOL1         0.0948
      11    C4      20.360969   18.194083   22.725959 C.3        1 MOL1        -0.1435
      12    H8      21.421545   18.047565   22.479349 H          1 MOL1         0.0948
      13    H9      20.083411   17.348740   23.366510 H          1 MOL1         0.0948
      14    C5      20.197171   19.522208   23.505757 C.3        1 MOL1        -0.1435
      15    H10     20.646316   20.326190   22.908352 H          1 MOL1         0.0948
      16    H11     19.133736   19.772239   23.610213 H          1 MOL1         0.0948
      17    C6      20.897491   19.512767   24.893253 C.3        1 MOL1        -0.1500
      18    H12     21.322226   20.509316   25.072182 H          1 MOL1         0.0948
      19    H13     21.758346   18.831475   24.872881 H          1 MOL1         0.0948
      20    C7      19.996290   19.168212   26.105027 C.3        1 MOL1         0.1162
      21    H14     20.631071   19.194540   26.996134 H          1 MOL1         0.0910
      22    C8      19.385030   17.760652   26.014701 C.3        1 MOL1        -0.2491
      23    H15     18.868631   17.506407   26.948406 H          1 MOL1         0.0959
      24    H16     18.655149   17.690915   25.199261 H          1 MOL1         0.0959
      25    H17     20.164920   17.006848   25.850758 H          1 MOL1         0.0959
      26    N1      18.926795   20.201682   26.330651 N.4        1 MOL1        -0.5987
      27    H18     18.380102   19.996120   27.171776 H          1 MOL1         0.3605
      28    H19     18.275572   20.240953   25.542835 H          1 MOL1         0.3605
      29    H20     19.327239   21.136982   26.446985 H          1 MOL1         0.3605
@<TRIPOS>BOND
    1     1     2    1
    2     1     3    1
    3     1     4    1
    4     1     5    1
    5     5     6    1
    6     5     7    1
    7     5     8    1
    8     8     9    1
    9     8    10    1
   10     8    11    1
   11    11    12    1
   12    11    13    1
   13    11    14    1
   14    14    15    1
   15    14    16    1
   16    14    17    1
   17    17    18    1
   18    17    19    1
   19    17    20    1
   20    20    21    1
   21    20    22    1
   22    22    23    1
   23    22    24    1
   24    22    25    1
   25    20    26    1
   26    26    27    1
   27    26    28    1
   28    26    29    1
@<TRIPOS>SUBSTRUCTURE
       1 MOL1            1 RESIDUE      1      MOL     
@<SCITEGIC>MOL_PROPERTY
VM2 Rank
SciTegic.value.IntegerValue
188

@<SCITEGIC>MOL_PROPERTY
Conf_Id
SciTegic.value.IntegerValue
526

@<SCITEGIC>MOL_PROPERTY
Probability
SciTegic.value.DoubleValue
0.00

@<SCITEGIC>MOL_PROPERTY
Sum Probability
SciTegic.value.DoubleValue
100.00

@<SCITEGIC>MOL_PROPERTY
Delta G
SciTegic.value.DoubleValue
6.759

@<SCITEGIC>MOL_PROPERTY
G
SciTegic.value.DoubleValue
40.461

@<SCITEGIC>MOL_PROPERTY
E
SciTegic.value.DoubleValue
2.313

@<SCITEGIC>MOL_PROPERTY
-TS
SciTegic.value.DoubleValue
38.148

@<SCITEGIC>MOL_PROPERTY
U+W
SciTegic.value.DoubleValue
-21.831

@<SCITEGIC>MOL_PROPERTY
U
SciTegic.value.DoubleValue
30.788

@<SCITEGIC>MOL_PROPERTY
W
SciTegic.value.DoubleValue
-52.620

@<SCITEGIC>MOL_PROPERTY
W(PB)
SciTegic.value.DoubleValue
-55.022

@<SCITEGIC>MOL_PROPERTY
W(SA)
SciTegic.value.DoubleValue
2.402

@<SCITEGIC>MOL_PROPERTY
Valence
SciTegic.value.DoubleValue
9.278

@<SCITEGIC>MOL_PROPERTY
Coulomb
SciTegic.value.DoubleValue
20.293

@<SCITEGIC>MOL_PROPERTY
VdW
SciTegic.value.DoubleValue
1.217

@<SCITEGIC>MOL_PROPERTY
VdW6
SciTegic.value.DoubleValue
-11.113

@<SCITEGIC>MOL_PROPERTY
VdW12
SciTegic.value.DoubleValue
12.330

@<SCITEGIC>MOL_PROPERTY
Bond
SciTegic.value.DoubleValue
0.365

@<SCITEGIC>MOL_PROPERTY
Angle
SciTegic.value.DoubleValue
2.560

@<SCITEGIC>MOL_PROPERTY
Pdih
SciTegic.value.DoubleValue
6.353

@<SCITEGIC>MOL_PROPERTY
Idih
SciTegic.value.DoubleValue
0.000

@<SCITEGIC>MOL_PROPERTY
Tether
SciTegic.value.DoubleValue
0.000

@<TRIPOS>MOLECULE
guest-s15_vm2.mol2 : vm2 ligand conformer 189
          29          28           1
SMALL
USER_CHARGES
 
@<TRIPOS>ATOM
       1    C1      20.628066   18.851219   19.948497 C.3        1 MOL1        -0.2426
       2    H1      21.360608   18.648661   20.737871 H          1 MOL1         0.0959
       3    H2      20.295881   17.887040   19.542177 H          1 MOL1         0.0959
       4    H3      21.144098   19.391463   19.144302 H          1 MOL1         0.0959
       5    C2      19.425604   19.673034   20.468402 C.3        1 MOL1        -0.1410
       6    H4      18.738382   19.838578   19.626866 H          1 MOL1         0.0948
       7    H5      19.754726   20.671031   20.789713 H          1 MOL1         0.0948
       8    C3      18.650863   18.965861   21.610112 C.3        1 MOL1        -0.1435
       9    H6      17.578028   19.149804   21.459830 H          1 MOL1         0.0948
      10    H7      18.776231   17.876734   21.537169 H          1 MOL1         0.0948
      11    C4      19.011154   19.447392   23.039366 C.3        1 MOL1        -0.1435
      12    H8      18.349127   18.919497   23.734554 H          1 MOL1         0.0948
      13    H9      18.780447   20.517536   23.132493 H          1 MOL1         0.0948
      14    C5      20.485632   19.198201   23.440846 C.3        1 MOL1        -0.1435
      15    H10     20.721189   18.129980   23.345208 H          1 MOL1         0.0948
      16    H11     21.137573   19.717049   22.727427 H          1 MOL1         0.0948
      17    C6      20.870643   19.707329   24.858925 C.3        1 MOL1        -0.1500
      18    H12     20.741645   20.796776   24.900575 H          1 MOL1         0.0948
      19    H13     21.947529   19.537850   24.989710 H          1 MOL1         0.0948
      20    C7      20.151093   19.067961   26.074158 C.3        1 MOL1         0.1162
      21    H14     20.719913   19.357073   26.963287 H          1 MOL1         0.0910
      22    C8      20.145000   17.530556   26.015138 C.3        1 MOL1        -0.2491
      23    H15     19.760323   17.111602   26.952998 H          1 MOL1         0.0959
      24    H16     19.514634   17.159259   25.198263 H          1 MOL1         0.0959
      25    H17     21.161137   17.143555   25.869408 H          1 MOL1         0.0959
      26    N1      18.767945   19.614448   26.298556 N.4        1 MOL1        -0.5987
      27    H18     18.344296   19.221535   27.144057 H          1 MOL1         0.3605
      28    H19     18.149625   19.397260   25.514524 H          1 MOL1         0.3605
      29    H20     18.781182   20.632501   26.408505 H          1 MOL1         0.3605
@<TRIPOS>BOND
    1     1     2    1
    2     1     3    1
    3     1     4    1
    4     1     5    1
    5     5     6    1
    6     5     7    1
    7     5     8    1
    8     8     9    1
    9     8    10    1
   10     8    11    1
   11    11    12    1
   12    11    13    1
   13    11    14    1
   14    14    15    1
   15    14    16    1
   16    14    17    1
   17    17    18    1
   18    17    19    1
   19    17    20    1
   20    20    21    1
   21    20    22    1
   22    22    23    1
   23    22    24    1
   24    22    25    1
   25    20    26    1
   26    26    27    1
   27    26    28    1
   28    26    29    1
@<TRIPOS>SUBSTRUCTURE
       1 MOL1            1 RESIDUE      1      MOL     
@<SCITEGIC>MOL_PROPERTY
VM2 Rank
SciTegic.value.IntegerValue
189

@<SCITEGIC>MOL_PROPERTY
Conf_Id
SciTegic.value.IntegerValue
1234

@<SCITEGIC>MOL_PROPERTY
Probability
SciTegic.value.DoubleValue
0.00

@<SCITEGIC>MOL_PROPERTY
Sum Probability
SciTegic.value.DoubleValue
100.00

@<SCITEGIC>MOL_PROPERTY
Delta G
SciTegic.value.DoubleValue
6.813

@<SCITEGIC>MOL_PROPERTY
G
SciTegic.value.DoubleValue
40.515

@<SCITEGIC>MOL_PROPERTY
E
SciTegic.value.DoubleValue
2.306

@<SCITEGIC>MOL_PROPERTY
-TS
SciTegic.value.DoubleValue
38.209

@<SCITEGIC>MOL_PROPERTY
U+W
SciTegic.value.DoubleValue
-21.838

@<SCITEGIC>MOL_PROPERTY
U
SciTegic.value.DoubleValue
30.733

@<SCITEGIC>MOL_PROPERTY
W
SciTegic.value.DoubleValue
-52.571

@<SCITEGIC>MOL_PROPERTY
W(PB)
SciTegic.value.DoubleValue
-54.996

@<SCITEGIC>MOL_PROPERTY
W(SA)
SciTegic.value.DoubleValue
2.425

@<SCITEGIC>MOL_PROPERTY
Valence
SciTegic.value.DoubleValue
8.311

@<SCITEGIC>MOL_PROPERTY
Coulomb
SciTegic.value.DoubleValue
21.302

@<SCITEGIC>MOL_PROPERTY
VdW
SciTegic.value.DoubleValue
1.120

@<SCITEGIC>MOL_PROPERTY
VdW6
SciTegic.value.DoubleValue
-11.478

@<SCITEGIC>MOL_PROPERTY
VdW12
SciTegic.value.DoubleValue
12.598

@<SCITEGIC>MOL_PROPERTY
Bond
SciTegic.value.DoubleValue
0.388

@<SCITEGIC>MOL_PROPERTY
Angle
SciTegic.value.DoubleValue
3.090

@<SCITEGIC>MOL_PROPERTY
Pdih
SciTegic.value.DoubleValue
4.833

@<SCITEGIC>MOL_PROPERTY
Idih
SciTegic.value.DoubleValue
0.000

@<SCITEGIC>MOL_PROPERTY
Tether
SciTegic.value.DoubleValue
0.000

@<TRIPOS>MOLECULE
guest-s15_vm2.mol2 : vm2 ligand conformer 190
          29          28           1
SMALL
USER_CHARGES
 
@<TRIPOS>ATOM
       1    C1      18.036135   19.450369   21.558137 C.3        1 MOL1        -0.2426
       2    H1      18.199448   19.748649   22.598458 H          1 MOL1         0.0959
       3    H2      17.835348   20.359182   20.976116 H          1 MOL1         0.0959
       4    H3      17.132794   18.827695   21.525808 H          1 MOL1         0.0959
       5    C2      19.245334   18.681707   20.976674 C.3        1 MOL1        -0.1410
       6    H4      19.010633   18.427220   19.933609 H          1 MOL1         0.0948
       7    H5      19.382379   17.722415   21.493453 H          1 MOL1         0.0948
       8    C3      20.560732   19.500193   20.998619 C.3        1 MOL1        -0.1435
       9    H6      21.132808   19.238464   20.097734 H          1 MOL1         0.0948
      10    H7      20.341567   20.572574   20.903530 H          1 MOL1         0.0948
      11    C4      21.488380   19.252209   22.218935 C.3        1 MOL1        -0.1435
      12    H8      22.418079   19.809063   22.037325 H          1 MOL1         0.0948
      13    H9      21.784968   18.195083   22.257337 H          1 MOL1         0.0948
      14    C5      20.927890   19.704658   23.591606 C.3        1 MOL1        -0.1435
      15    H10     21.765407   20.071048   24.201473 H          1 MOL1         0.0948
      16    H11     20.258446   20.563054   23.453512 H          1 MOL1         0.0948
      17    C6      20.230666   18.563521   24.377538 C.3        1 MOL1        -0.1500
      18    H12     20.943702   17.737897   24.502882 H          1 MOL1         0.0948
      19    H13     19.388212   18.156762   23.807643 H          1 MOL1         0.0948
      20    C7      19.740864   19.007855   25.772544 C.3        1 MOL1         0.1162
      21    H14     20.593339   19.423049   26.318910 H          1 MOL1         0.0910
      22    C8      19.203796   17.801844   26.559499 C.3        1 MOL1        -0.2491
      23    H15     18.887445   18.104253   27.565417 H          1 MOL1         0.0959
      24    H16     18.343137   17.348059   26.052252 H          1 MOL1         0.0959
      25    H17     19.978557   17.033136   26.671648 H          1 MOL1         0.0959
      26    N1      18.702201   20.093644   25.700449 N.4        1 MOL1        -0.5987
      27    H18     18.411713   20.393871   26.635487 H          1 MOL1         0.3605
      28    H19     17.864318   19.775669   25.206517 H          1 MOL1         0.3605
      29    H20     19.058364   20.918935   25.210908 H          1 MOL1         0.3605
@<TRIPOS>BOND
    1     1     2    1
    2     1     3    1
    3     1     4    1
    4     1     5    1
    5     5     6    1
    6     5     7    1
    7     5     8    1
    8     8     9    1
    9     8    10    1
   10     8    11    1
   11    11    12    1
   12    11    13    1
   13    11    14    1
   14    14    15    1
   15    14    16    1
   16    14    17    1
   17    17    18    1
   18    17    19    1
   19    17    20    1
   20    20    21    1
   21    20    22    1
   22    22    23    1
   23    22    24    1
   24    22    25    1
   25    20    26    1
   26    26    27    1
   27    26    28    1
   28    26    29    1
@<TRIPOS>SUBSTRUCTURE
       1 MOL1            1 RESIDUE      1      MOL     
@<SCITEGIC>MOL_PROPERTY
VM2 Rank
SciTegic.value.IntegerValue
190

@<SCITEGIC>MOL_PROPERTY
Conf_Id
SciTegic.value.IntegerValue
1204

@<SCITEGIC>MOL_PROPERTY
Probability
SciTegic.value.DoubleValue
0.00

@<SCITEGIC>MOL_PROPERTY
Sum Probability
SciTegic.value.DoubleValue
100.00

@<SCITEGIC>MOL_PROPERTY
Delta G
SciTegic.value.DoubleValue
6.823

@<SCITEGIC>MOL_PROPERTY
G
SciTegic.value.DoubleValue
40.524

@<SCITEGIC>MOL_PROPERTY
E
SciTegic.value.DoubleValue
2.175

@<SCITEGIC>MOL_PROPERTY
-TS
SciTegic.value.DoubleValue
38.350

@<SCITEGIC>MOL_PROPERTY
U+W
SciTegic.value.DoubleValue
-21.970

@<SCITEGIC>MOL_PROPERTY
U
SciTegic.value.DoubleValue
30.724

@<SCITEGIC>MOL_PROPERTY
W
SciTegic.value.DoubleValue
-52.694

@<SCITEGIC>MOL_PROPERTY
W(PB)
SciTegic.value.DoubleValue
-55.087

@<SCITEGIC>MOL_PROPERTY
W(SA)
SciTegic.value.DoubleValue
2.393

@<SCITEGIC>MOL_PROPERTY
Valence
SciTegic.value.DoubleValue
8.746

@<SCITEGIC>MOL_PROPERTY
Coulomb
SciTegic.value.DoubleValue
21.258

@<SCITEGIC>MOL_PROPERTY
VdW
SciTegic.value.DoubleValue
0.720

@<SCITEGIC>MOL_PROPERTY
VdW6
SciTegic.value.DoubleValue
-11.140

@<SCITEGIC>MOL_PROPERTY
VdW12
SciTegic.value.DoubleValue
11.861

@<SCITEGIC>MOL_PROPERTY
Bond
SciTegic.value.DoubleValue
0.332

@<SCITEGIC>MOL_PROPERTY
Angle
SciTegic.value.DoubleValue
2.430

@<SCITEGIC>MOL_PROPERTY
Pdih
SciTegic.value.DoubleValue
5.984

@<SCITEGIC>MOL_PROPERTY
Idih
SciTegic.value.DoubleValue
0.000

@<SCITEGIC>MOL_PROPERTY
Tether
SciTegic.value.DoubleValue
0.000

@<TRIPOS>MOLECULE
guest-s15_vm2.mol2 : vm2 ligand conformer 191
          29          28           1
SMALL
USER_CHARGES
 
@<TRIPOS>ATOM
       1    C1      20.605008   17.730386   21.272292 C.3        1 MOL1        -0.2426
       2    H1      20.384155   17.562949   22.331186 H          1 MOL1         0.0959
       3    H2      19.949465   17.074199   20.685222 H          1 MOL1         0.0959
       4    H3      21.640758   17.415201   21.091641 H          1 MOL1         0.0959
       5    C2      20.409025   19.209044   20.865663 C.3        1 MOL1        -0.1410
       6    H4      20.633461   19.294735   19.793227 H          1 MOL1         0.0948
       7    H5      21.138339   19.853049   21.374986 H          1 MOL1         0.0948
       8    C3      18.968878   19.725452   21.109671 C.3        1 MOL1        -0.1435
       9    H6      18.724156   20.428248   20.301243 H          1 MOL1         0.0948
      10    H7      18.248313   18.902257   21.008597 H          1 MOL1         0.0948
      11    C4      18.739853   20.472503   22.451486 C.3        1 MOL1        -0.1435
      12    H8      17.718618   20.877272   22.425580 H          1 MOL1         0.0948
      13    H9      19.398582   21.349710   22.510770 H          1 MOL1         0.0948
      14    C5      18.873080   19.610841   23.733651 C.3        1 MOL1        -0.1435
      15    H10     18.132695   19.972060   24.459389 H          1 MOL1         0.0948
      16    H11     18.596333   18.572626   23.511938 H          1 MOL1         0.0948
      17    C6      20.281550   19.695209   24.385455 C.3        1 MOL1        -0.1500
      18    H12     20.511564   20.747045   24.599613 H          1 MOL1         0.0948
      19    H13     21.048211   19.363464   23.676807 H          1 MOL1         0.0948
      20    C7      20.441822   18.890391   25.697090 C.3        1 MOL1         0.1162
      21    H14     21.449115   19.086427   26.077452 H          1 MOL1         0.0910
      22    C8      20.321199   17.374160   25.465984 C.3        1 MOL1        -0.2491
      23    H15     21.032159   17.038934   24.701040 H          1 MOL1         0.0959
      24    H16     20.547036   16.826814   26.389352 H          1 MOL1         0.0959
      25    H17     19.311434   17.090153   25.147184 H          1 MOL1         0.0959
      26    N1      19.495584   19.348014   26.772707 N.4        1 MOL1        -0.5987
      27    H18     19.659367   18.849385   27.651980 H          1 MOL1         0.3605
      28    H19     18.522095   19.185085   26.503876 H          1 MOL1         0.3605
      29    H20     19.600217   20.348624   26.963700 H          1 MOL1         0.3605
@<TRIPOS>BOND
    1     1     2    1
    2     1     3    1
    3     1     4    1
    4     1     5    1
    5     5     6    1
    6     5     7    1
    7     5     8    1
    8     8     9    1
    9     8    10    1
   10     8    11    1
   11    11    12    1
   12    11    13    1
   13    11    14    1
   14    14    15    1
   15    14    16    1
   16    14    17    1
   17    17    18    1
   18    17    19    1
   19    17    20    1
   20    20    21    1
   21    20    22    1
   22    22    23    1
   23    22    24    1
   24    22    25    1
   25    20    26    1
   26    26    27    1
   27    26    28    1
   28    26    29    1
@<TRIPOS>SUBSTRUCTURE
       1 MOL1            1 RESIDUE      1      MOL     
@<SCITEGIC>MOL_PROPERTY
VM2 Rank
SciTegic.value.IntegerValue
191

@<SCITEGIC>MOL_PROPERTY
Conf_Id
SciTegic.value.IntegerValue
125

@<SCITEGIC>MOL_PROPERTY
Probability
SciTegic.value.DoubleValue
0.00

@<SCITEGIC>MOL_PROPERTY
Sum Probability
SciTegic.value.DoubleValue
100.00

@<SCITEGIC>MOL_PROPERTY
Delta G
SciTegic.value.DoubleValue
6.895

@<SCITEGIC>MOL_PROPERTY
G
SciTegic.value.DoubleValue
40.597

@<SCITEGIC>MOL_PROPERTY
E
SciTegic.value.DoubleValue
1.974

@<SCITEGIC>MOL_PROPERTY
-TS
SciTegic.value.DoubleValue
38.623

@<SCITEGIC>MOL_PROPERTY
U+W
SciTegic.value.DoubleValue
-22.171

@<SCITEGIC>MOL_PROPERTY
U
SciTegic.value.DoubleValue
30.488

@<SCITEGIC>MOL_PROPERTY
W
SciTegic.value.DoubleValue
-52.659

@<SCITEGIC>MOL_PROPERTY
W(PB)
SciTegic.value.DoubleValue
-55.024

@<SCITEGIC>MOL_PROPERTY
W(SA)
SciTegic.value.DoubleValue
2.365

@<SCITEGIC>MOL_PROPERTY
Valence
SciTegic.value.DoubleValue
9.346

@<SCITEGIC>MOL_PROPERTY
Coulomb
SciTegic.value.DoubleValue
20.316

@<SCITEGIC>MOL_PROPERTY
VdW
SciTegic.value.DoubleValue
0.826

@<SCITEGIC>MOL_PROPERTY
VdW6
SciTegic.value.DoubleValue
-11.863

@<SCITEGIC>MOL_PROPERTY
VdW12
SciTegic.value.DoubleValue
12.688

@<SCITEGIC>MOL_PROPERTY
Bond
SciTegic.value.DoubleValue
0.377

@<SCITEGIC>MOL_PROPERTY
Angle
SciTegic.value.DoubleValue
2.762

@<SCITEGIC>MOL_PROPERTY
Pdih
SciTegic.value.DoubleValue
6.207

@<SCITEGIC>MOL_PROPERTY
Idih
SciTegic.value.DoubleValue
0.000

@<SCITEGIC>MOL_PROPERTY
Tether
SciTegic.value.DoubleValue
0.000

@<TRIPOS>MOLECULE
guest-s15_vm2.mol2 : vm2 ligand conformer 192
          29          28           1
SMALL
USER_CHARGES
 
@<TRIPOS>ATOM
       1    C1      19.334693   20.958004   20.189245 C.3        1 MOL1        -0.2426
       2    H1      19.366782   21.771049   20.926229 H          1 MOL1         0.0959
       3    H2      20.299424   20.932720   19.665859 H          1 MOL1         0.0959
       4    H3      18.558152   21.201543   19.452539 H          1 MOL1         0.0959
       5    C2      19.036449   19.604476   20.867711 C.3        1 MOL1        -0.1410
       6    H4      18.976383   18.818130   20.102123 H          1 MOL1         0.0948
       7    H5      18.050956   19.650087   21.351612 H          1 MOL1         0.0948
       8    C3      20.117808   19.236691   21.907223 C.3        1 MOL1        -0.1435
       9    H6      21.095642   19.181528   21.408730 H          1 MOL1         0.0948
      10    H7      20.203266   20.039483   22.648811 H          1 MOL1         0.0948
      11    C4      19.822490   17.878322   22.590137 C.3        1 MOL1        -0.1435
      12    H8      19.916020   17.091684   21.828384 H          1 MOL1         0.0948
      13    H9      18.783421   17.824969   22.940999 H          1 MOL1         0.0948
      14    C5      20.798036   17.556904   23.750930 C.3        1 MOL1        -0.1435
      15    H10     21.008532   16.478665   23.726545 H          1 MOL1         0.0948
      16    H11     21.766151   18.047398   23.578598 H          1 MOL1         0.0948
      17    C6      20.280577   17.894284   25.176316 C.3        1 MOL1        -0.1500
      18    H12     21.041817   17.542836   25.885604 H          1 MOL1         0.0948
      19    H13     19.377796   17.308967   25.395582 H          1 MOL1         0.0948
      20    C7      20.008715   19.392471   25.447199 C.3        1 MOL1         0.1162
      21    H14     20.800730   19.979148   24.971900 H          1 MOL1         0.0910
      22    C8      20.037013   19.678831   26.957481 C.3        1 MOL1        -0.2491
      23    H15     19.268684   19.100128   27.485497 H          1 MOL1         0.0959
      24    H16     21.013763   19.421561   27.385903 H          1 MOL1         0.0959
      25    H17     19.859404   20.743281   27.154651 H          1 MOL1         0.0959
      26    N1      18.700221   19.856018   24.867758 N.4        1 MOL1        -0.5987
      27    H18     18.664143   19.677707   23.859567 H          1 MOL1         0.3605
      28    H19     18.559973   20.859883   25.015042 H          1 MOL1         0.3605
      29    H20     17.910132   19.368777   25.299350 H          1 MOL1         0.3605
@<TRIPOS>BOND
    1     1     2    1
    2     1     3    1
    3     1     4    1
    4     1     5    1
    5     5     6    1
    6     5     7    1
    7     5     8    1
    8     8     9    1
    9     8    10    1
   10     8    11    1
   11    11    12    1
   12    11    13    1
   13    11    14    1
   14    14    15    1
   15    14    16    1
   16    14    17    1
   17    17    18    1
   18    17    19    1
   19    17    20    1
   20    20    21    1
   21    20    22    1
   22    22    23    1
   23    22    24    1
   24    22    25    1
   25    20    26    1
   26    26    27    1
   27    26    28    1
   28    26    29    1
@<TRIPOS>SUBSTRUCTURE
       1 MOL1            1 RESIDUE      1      MOL     
@<SCITEGIC>MOL_PROPERTY
VM2 Rank
SciTegic.value.IntegerValue
192

@<SCITEGIC>MOL_PROPERTY
Conf_Id
SciTegic.value.IntegerValue
1310

@<SCITEGIC>MOL_PROPERTY
Probability
SciTegic.value.DoubleValue
0.00

@<SCITEGIC>MOL_PROPERTY
Sum Probability
SciTegic.value.DoubleValue
100.00

@<SCITEGIC>MOL_PROPERTY
Delta G
SciTegic.value.DoubleValue
7.121

@<SCITEGIC>MOL_PROPERTY
G
SciTegic.value.DoubleValue
40.822

@<SCITEGIC>MOL_PROPERTY
E
SciTegic.value.DoubleValue
2.728

@<SCITEGIC>MOL_PROPERTY
-TS
SciTegic.value.DoubleValue
38.094

@<SCITEGIC>MOL_PROPERTY
U+W
SciTegic.value.DoubleValue
-21.416

@<SCITEGIC>MOL_PROPERTY
U
SciTegic.value.DoubleValue
29.728

@<SCITEGIC>MOL_PROPERTY
W
SciTegic.value.DoubleValue
-51.144

@<SCITEGIC>MOL_PROPERTY
W(PB)
SciTegic.value.DoubleValue
-53.597

@<SCITEGIC>MOL_PROPERTY
W(SA)
SciTegic.value.DoubleValue
2.453

@<SCITEGIC>MOL_PROPERTY
Valence
SciTegic.value.DoubleValue
7.448

@<SCITEGIC>MOL_PROPERTY
Coulomb
SciTegic.value.DoubleValue
21.445

@<SCITEGIC>MOL_PROPERTY
VdW
SciTegic.value.DoubleValue
0.835

@<SCITEGIC>MOL_PROPERTY
VdW6
SciTegic.value.DoubleValue
-10.815

@<SCITEGIC>MOL_PROPERTY
VdW12
SciTegic.value.DoubleValue
11.650

@<SCITEGIC>MOL_PROPERTY
Bond
SciTegic.value.DoubleValue
0.282

@<SCITEGIC>MOL_PROPERTY
Angle
SciTegic.value.DoubleValue
2.108

@<SCITEGIC>MOL_PROPERTY
Pdih
SciTegic.value.DoubleValue
5.057

@<SCITEGIC>MOL_PROPERTY
Idih
SciTegic.value.DoubleValue
0.000

@<SCITEGIC>MOL_PROPERTY
Tether
SciTegic.value.DoubleValue
0.000

@<TRIPOS>MOLECULE
guest-s15_vm2.mol2 : vm2 ligand conformer 193
          29          28           1
SMALL
USER_CHARGES
 
@<TRIPOS>ATOM
       1    C1      21.329944   19.324253   20.872449 C.3        1 MOL1        -0.2426
       2    H1      21.997652   20.132156   20.546490 H          1 MOL1         0.0959
       3    H2      21.648175   19.014454   21.874778 H          1 MOL1         0.0959
       4    H3      21.475167   18.474911   20.192416 H          1 MOL1         0.0959
       5    C2      19.858520   19.798357   20.856741 C.3        1 MOL1        -0.1410
       6    H4      19.617327   20.150805   19.844233 H          1 MOL1         0.0948
       7    H5      19.731154   20.668539   21.513510 H          1 MOL1         0.0948
       8    C3      18.854552   18.683940   21.240546 C.3        1 MOL1        -0.1435
       9    H6      17.833961   19.049039   21.061259 H          1 MOL1         0.0948
      10    H7      18.990915   17.837076   20.554016 H          1 MOL1         0.0948
      11    C4      18.952235   18.162827   22.699615 C.3        1 MOL1        -0.1435
      12    H8      19.948549   17.747594   22.888648 H          1 MOL1         0.0948
      13    H9      18.261204   17.313369   22.788657 H          1 MOL1         0.0948
      14    C5      18.561306   19.207161   23.781635 C.3        1 MOL1        -0.1435
      15    H10     17.834588   19.908380   23.349143 H          1 MOL1         0.0948
      16    H11     18.019456   18.699197   24.589538 H          1 MOL1         0.0948
      17    C6      19.748999   20.014367   24.381283 C.3        1 MOL1        -0.1500
      18    H12     19.389778   21.022443   24.626109 H          1 MOL1         0.0948
      19    H13     20.530575   20.161972   23.628463 H          1 MOL1         0.0948
      20    C7      20.389972   19.425703   25.662752 C.3        1 MOL1         0.1162
      21    H14     21.199078   20.101272   25.957125 H          1 MOL1         0.0910
      22    C8      21.008492   18.036642   25.436669 C.3        1 MOL1        -0.2491
      23    H15     21.718503   18.057749   24.600816 H          1 MOL1         0.0959
      24    H16     21.556610   17.710902   26.329177 H          1 MOL1         0.0959
      25    H17     20.239990   17.284305   25.222461 H          1 MOL1         0.0959
      26    N1      19.431979   19.402751   26.822310 N.4        1 MOL1        -0.5987
      27    H18     19.888811   19.075033   27.678150 H          1 MOL1         0.3605
      28    H19     18.641171   18.780459   26.638884 H          1 MOL1         0.3605
      29    H20     19.053184   20.334431   27.014932 H          1 MOL1         0.3605
@<TRIPOS>BOND
    1     1     2    1
    2     1     3    1
    3     1     4    1
    4     1     5    1
    5     5     6    1
    6     5     7    1
    7     5     8    1
    8     8     9    1
    9     8    10    1
   10     8    11    1
   11    11    12    1
   12    11    13    1
   13    11    14    1
   14    14    15    1
   15    14    16    1
   16    14    17    1
   17    17    18    1
   18    17    19    1
   19    17    20    1
   20    20    21    1
   21    20    22    1
   22    22    23    1
   23    22    24    1
   24    22    25    1
   25    20    26    1
   26    26    27    1
   27    26    28    1
   28    26    29    1
@<TRIPOS>SUBSTRUCTURE
       1 MOL1            1 RESIDUE      1      MOL     
@<SCITEGIC>MOL_PROPERTY
VM2 Rank
SciTegic.value.IntegerValue
193

@<SCITEGIC>MOL_PROPERTY
Conf_Id
SciTegic.value.IntegerValue
333

@<SCITEGIC>MOL_PROPERTY
Probability
SciTegic.value.DoubleValue
0.00

@<SCITEGIC>MOL_PROPERTY
Sum Probability
SciTegic.value.DoubleValue
100.00

@<SCITEGIC>MOL_PROPERTY
Delta G
SciTegic.value.DoubleValue
7.275

@<SCITEGIC>MOL_PROPERTY
G
SciTegic.value.DoubleValue
40.977

@<SCITEGIC>MOL_PROPERTY
E
SciTegic.value.DoubleValue
2.258

@<SCITEGIC>MOL_PROPERTY
-TS
SciTegic.value.DoubleValue
38.719

@<SCITEGIC>MOL_PROPERTY
U+W
SciTegic.value.DoubleValue
-21.886

@<SCITEGIC>MOL_PROPERTY
U
SciTegic.value.DoubleValue
30.828

@<SCITEGIC>MOL_PROPERTY
W
SciTegic.value.DoubleValue
-52.714

@<SCITEGIC>MOL_PROPERTY
W(PB)
SciTegic.value.DoubleValue
-55.055

@<SCITEGIC>MOL_PROPERTY
W(SA)
SciTegic.value.DoubleValue
2.341

@<SCITEGIC>MOL_PROPERTY
Valence
SciTegic.value.DoubleValue
9.595

@<SCITEGIC>MOL_PROPERTY
Coulomb
SciTegic.value.DoubleValue
20.313

@<SCITEGIC>MOL_PROPERTY
VdW
SciTegic.value.DoubleValue
0.920

@<SCITEGIC>MOL_PROPERTY
VdW6
SciTegic.value.DoubleValue
-12.305

@<SCITEGIC>MOL_PROPERTY
VdW12
SciTegic.value.DoubleValue
13.225

@<SCITEGIC>MOL_PROPERTY
Bond
SciTegic.value.DoubleValue
0.425

@<SCITEGIC>MOL_PROPERTY
Angle
SciTegic.value.DoubleValue
2.902

@<SCITEGIC>MOL_PROPERTY
Pdih
SciTegic.value.DoubleValue
6.268

@<SCITEGIC>MOL_PROPERTY
Idih
SciTegic.value.DoubleValue
0.000

@<SCITEGIC>MOL_PROPERTY
Tether
SciTegic.value.DoubleValue
0.000

@<TRIPOS>MOLECULE
guest-s15_vm2.mol2 : vm2 ligand conformer 194
          29          28           1
SMALL
USER_CHARGES
 
@<TRIPOS>ATOM
       1    C1      18.595831   20.104870   20.766326 C.3        1 MOL1        -0.2426
       2    H1      18.111566   19.124649   20.856752 H          1 MOL1         0.0959
       3    H2      18.275815   20.733303   21.606980 H          1 MOL1         0.0959
       4    H3      18.226750   20.568683   19.842449 H          1 MOL1         0.0959
       5    C2      20.133579   19.969621   20.723590 C.3        1 MOL1        -0.1410
       6    H4      20.566979   20.952481   20.491438 H          1 MOL1         0.0948
       7    H5      20.418216   19.308577   19.893103 H          1 MOL1         0.0948
       8    C3      20.765719   19.450861   22.040217 C.3        1 MOL1        -0.1435
       9    H6      21.856313   19.459349   21.906873 H          1 MOL1         0.0948
      10    H7      20.563875   20.159513   22.850113 H          1 MOL1         0.0948
      11    C4      20.342670   18.009303   22.433900 C.3        1 MOL1        -0.1435
      12    H8      21.192754   17.501412   22.909771 H          1 MOL1         0.0948
      13    H9      20.143775   17.437850   21.516810 H          1 MOL1         0.0948
      14    C5      19.109426   17.909406   23.373164 C.3        1 MOL1        -0.1435
      15    H10     18.376337   18.692418   23.148157 H          1 MOL1         0.0948
      16    H11     18.599298   16.960448   23.157799 H          1 MOL1         0.0948
      17    C6      19.458484   17.913774   24.885744 C.3        1 MOL1        -0.1500
      18    H12     20.150073   17.085524   25.089722 H          1 MOL1         0.0948
      19    H13     18.548852   17.696113   25.461122 H          1 MOL1         0.0948
      20    C7      20.077455   19.228963   25.404807 C.3        1 MOL1         0.1162
      21    H14     20.965723   19.452052   24.806908 H          1 MOL1         0.0910
      22    C8      20.513918   19.073792   26.870107 C.3        1 MOL1        -0.2491
      23    H15     21.245333   18.262764   26.974982 H          1 MOL1         0.0959
      24    H16     20.984561   19.995208   27.234618 H          1 MOL1         0.0959
      25    H17     19.657689   18.847720   27.517941 H          1 MOL1         0.0959
      26    N1      19.138917   20.395409   25.256144 N.4        1 MOL1        -0.5987
      27    H18     18.288120   20.259351   25.808793 H          1 MOL1         0.3605
      28    H19     18.857029   20.522047   24.280375 H          1 MOL1         0.3605
      29    H20     19.572808   21.267950   25.571224 H          1 MOL1         0.3605
@<TRIPOS>BOND
    1     1     2    1
    2     1     3    1
    3     1     4    1
    4     1     5    1
    5     5     6    1
    6     5     7    1
    7     5     8    1
    8     8     9    1
    9     8    10    1
   10     8    11    1
   11    11    12    1
   12    11    13    1
   13    11    14    1
   14    14    15    1
   15    14    16    1
   16    14    17    1
   17    17    18    1
   18    17    19    1
   19    17    20    1
   20    20    21    1
   21    20    22    1
   22    22    23    1
   23    22    24    1
   24    22    25    1
   25    20    26    1
   26    26    27    1
   27    26    28    1
   28    26    29    1
@<TRIPOS>SUBSTRUCTURE
       1 MOL1            1 RESIDUE      1      MOL     
@<SCITEGIC>MOL_PROPERTY
VM2 Rank
SciTegic.value.IntegerValue
194

@<SCITEGIC>MOL_PROPERTY
Conf_Id
SciTegic.value.IntegerValue
971

@<SCITEGIC>MOL_PROPERTY
Probability
SciTegic.value.DoubleValue
0.00

@<SCITEGIC>MOL_PROPERTY
Sum Probability
SciTegic.value.DoubleValue
100.00

@<SCITEGIC>MOL_PROPERTY
Delta G
SciTegic.value.DoubleValue
7.297

@<SCITEGIC>MOL_PROPERTY
G
SciTegic.value.DoubleValue
40.999

@<SCITEGIC>MOL_PROPERTY
E
SciTegic.value.DoubleValue
2.642

@<SCITEGIC>MOL_PROPERTY
-TS
SciTegic.value.DoubleValue
38.357

@<SCITEGIC>MOL_PROPERTY
U+W
SciTegic.value.DoubleValue
-21.502

@<SCITEGIC>MOL_PROPERTY
U
SciTegic.value.DoubleValue
30.703

@<SCITEGIC>MOL_PROPERTY
W
SciTegic.value.DoubleValue
-52.205

@<SCITEGIC>MOL_PROPERTY
W(PB)
SciTegic.value.DoubleValue
-54.613

@<SCITEGIC>MOL_PROPERTY
W(SA)
SciTegic.value.DoubleValue
2.408

@<SCITEGIC>MOL_PROPERTY
Valence
SciTegic.value.DoubleValue
8.590

@<SCITEGIC>MOL_PROPERTY
Coulomb
SciTegic.value.DoubleValue
21.434

@<SCITEGIC>MOL_PROPERTY
VdW
SciTegic.value.DoubleValue
0.679

@<SCITEGIC>MOL_PROPERTY
VdW6
SciTegic.value.DoubleValue
-11.710

@<SCITEGIC>MOL_PROPERTY
VdW12
SciTegic.value.DoubleValue
12.389

@<SCITEGIC>MOL_PROPERTY
Bond
SciTegic.value.DoubleValue
0.360

@<SCITEGIC>MOL_PROPERTY
Angle
SciTegic.value.DoubleValue
2.440

@<SCITEGIC>MOL_PROPERTY
Pdih
SciTegic.value.DoubleValue
5.790

@<SCITEGIC>MOL_PROPERTY
Idih
SciTegic.value.DoubleValue
0.000

@<SCITEGIC>MOL_PROPERTY
Tether
SciTegic.value.DoubleValue
0.000

@<TRIPOS>MOLECULE
guest-s15_vm2.mol2 : vm2 ligand conformer 195
          29          28           1
SMALL
USER_CHARGES
 
@<TRIPOS>ATOM
       1    C1      18.247471   19.382154   20.062629 C.3        1 MOL1        -0.2426
       2    H1      18.454177   20.414097   19.750210 H          1 MOL1         0.0959
       3    H2      18.006333   18.799894   19.163821 H          1 MOL1         0.0959
       4    H3      17.358533   19.391186   20.706770 H          1 MOL1         0.0959
       5    C2      19.459415   18.772005   20.797844 C.3        1 MOL1        -0.1410
       6    H4      20.322438   18.743717   20.117928 H          1 MOL1         0.0948
       7    H5      19.234657   17.730827   21.068541 H          1 MOL1         0.0948
       8    C3      19.821027   19.574394   22.066790 C.3        1 MOL1        -0.1435
       9    H6      20.048315   20.612685   21.787818 H          1 MOL1         0.0948
      10    H7      18.949313   19.612176   22.729491 H          1 MOL1         0.0948
      11    C4      21.037160   18.963911   22.804604 C.3        1 MOL1        -0.1435
      12    H8      21.900702   19.004262   22.126149 H          1 MOL1         0.0948
      13    H9      20.874881   17.897879   23.011184 H          1 MOL1         0.0948
      14    C5      21.403053   19.717952   24.108600 C.3        1 MOL1        -0.1435
      15    H10     22.493686   19.852122   24.114223 H          1 MOL1         0.0948
      16    H11     20.995575   20.737521   24.095857 H          1 MOL1         0.0948
      17    C6      21.030975   18.992065   25.434416 C.3        1 MOL1        -0.1500
      18    H12     21.506055   19.549424   26.252324 H          1 MOL1         0.0948
      19    H13     21.499236   17.999161   25.455695 H          1 MOL1         0.0948
      20    C7      19.528370   18.863665   25.792243 C.3        1 MOL1         0.1162
      21    H14     19.481186   18.680824   26.870229 H          1 MOL1         0.0910
      22    C8      18.850619   17.655179   25.121666 C.3        1 MOL1        -0.2491
      23    H15     18.773036   17.766902   24.036904 H          1 MOL1         0.0959
      24    H16     19.406982   16.733036   25.329953 H          1 MOL1         0.0959
      25    H17     17.835215   17.521995   25.514433 H          1 MOL1         0.0959
      26    N1      18.757911   20.134675   25.565207 N.4        1 MOL1        -0.5987
      27    H18     19.159008   20.912957   26.096523 H          1 MOL1         0.3605
      28    H19     17.780288   20.037141   25.854207 H          1 MOL1         0.3605
      29    H20     18.767927   20.397989   24.577295 H          1 MOL1         0.3605
@<TRIPOS>BOND
    1     1     2    1
    2     1     3    1
    3     1     4    1
    4     1     5    1
    5     5     6    1
    6     5     7    1
    7     5     8    1
    8     8     9    1
    9     8    10    1
   10     8    11    1
   11    11    12    1
   12    11    13    1
   13    11    14    1
   14    14    15    1
   15    14    16    1
   16    14    17    1
   17    17    18    1
   18    17    19    1
   19    17    20    1
   20    20    21    1
   21    20    22    1
   22    22    23    1
   23    22    24    1
   24    22    25    1
   25    20    26    1
   26    26    27    1
   27    26    28    1
   28    26    29    1
@<TRIPOS>SUBSTRUCTURE
       1 MOL1            1 RESIDUE      1      MOL     
@<SCITEGIC>MOL_PROPERTY
VM2 Rank
SciTegic.value.IntegerValue
195

@<SCITEGIC>MOL_PROPERTY
Conf_Id
SciTegic.value.IntegerValue
110

@<SCITEGIC>MOL_PROPERTY
Probability
SciTegic.value.DoubleValue
0.00

@<SCITEGIC>MOL_PROPERTY
Sum Probability
SciTegic.value.DoubleValue
100.00

@<SCITEGIC>MOL_PROPERTY
Delta G
SciTegic.value.DoubleValue
7.406

@<SCITEGIC>MOL_PROPERTY
G
SciTegic.value.DoubleValue
41.108

@<SCITEGIC>MOL_PROPERTY
E
SciTegic.value.DoubleValue
2.873

@<SCITEGIC>MOL_PROPERTY
-TS
SciTegic.value.DoubleValue
38.235

@<SCITEGIC>MOL_PROPERTY
U+W
SciTegic.value.DoubleValue
-21.271

@<SCITEGIC>MOL_PROPERTY
U
SciTegic.value.DoubleValue
31.279

@<SCITEGIC>MOL_PROPERTY
W
SciTegic.value.DoubleValue
-52.551

@<SCITEGIC>MOL_PROPERTY
W(PB)
SciTegic.value.DoubleValue
-54.968

@<SCITEGIC>MOL_PROPERTY
W(SA)
SciTegic.value.DoubleValue
2.418

@<SCITEGIC>MOL_PROPERTY
Valence
SciTegic.value.DoubleValue
9.217

@<SCITEGIC>MOL_PROPERTY
Coulomb
SciTegic.value.DoubleValue
21.424

@<SCITEGIC>MOL_PROPERTY
VdW
SciTegic.value.DoubleValue
0.639

@<SCITEGIC>MOL_PROPERTY
VdW6
SciTegic.value.DoubleValue
-11.253

@<SCITEGIC>MOL_PROPERTY
VdW12
SciTegic.value.DoubleValue
11.892

@<SCITEGIC>MOL_PROPERTY
Bond
SciTegic.value.DoubleValue
0.349

@<SCITEGIC>MOL_PROPERTY
Angle
SciTegic.value.DoubleValue
3.016

@<SCITEGIC>MOL_PROPERTY
Pdih
SciTegic.value.DoubleValue
5.852

@<SCITEGIC>MOL_PROPERTY
Idih
SciTegic.value.DoubleValue
0.000

@<SCITEGIC>MOL_PROPERTY
Tether
SciTegic.value.DoubleValue
0.000

@<TRIPOS>MOLECULE
guest-s15_vm2.mol2 : vm2 ligand conformer 196
          29          28           1
SMALL
USER_CHARGES
 
@<TRIPOS>ATOM
       1    C1      18.915295   19.705322   20.200037 C.3        1 MOL1        -0.2426
       2    H1      18.637213   19.768023   19.140051 H          1 MOL1         0.0959
       3    H2      17.996077   19.555723   20.781044 H          1 MOL1         0.0959
       4    H3      19.354241   20.670680   20.479376 H          1 MOL1         0.0959
       5    C2      19.913740   18.550005   20.427782 C.3        1 MOL1        -0.1410
       6    H4      20.856465   18.774666   19.909677 H          1 MOL1         0.0948
       7    H5      19.514733   17.642916   19.952718 H          1 MOL1         0.0948
       8    C3      20.199451   18.235640   21.918302 C.3        1 MOL1        -0.1435
       9    H6      19.277147   17.906584   22.411822 H          1 MOL1         0.0948
      10    H7      20.871199   17.366669   21.945100 H          1 MOL1         0.0948
      11    C4      20.877186   19.387102   22.711091 C.3        1 MOL1        -0.1435
      12    H8      21.505842   19.973581   22.027188 H          1 MOL1         0.0948
      13    H9      21.576637   18.957460   23.439599 H          1 MOL1         0.0948
      14    C5      19.907465   20.343213   23.457375 C.3        1 MOL1        -0.1435
      15    H10     20.498229   21.163571   23.887735 H          1 MOL1         0.0948
      16    H11     19.228393   20.818465   22.740414 H          1 MOL1         0.0948
      17    C6      19.059386   19.706748   24.591655 C.3        1 MOL1        -0.1500
      18    H12     18.362435   18.961411   24.188995 H          1 MOL1         0.0948
      19    H13     18.422267   20.502949   24.998800 H          1 MOL1         0.0948
      20    C7      19.899232   19.101490   25.742807 C.3        1 MOL1         0.1162
      21    H14     20.898947   19.545014   25.706774 H          1 MOL1         0.0910
      22    C8      20.030317   17.573118   25.613387 C.3        1 MOL1        -0.2491
      23    H15     19.049451   17.085533   25.675891 H          1 MOL1         0.0959
      24    H16     20.489004   17.287357   24.661135 H          1 MOL1         0.0959
      25    H17     20.660442   17.170587   26.415979 H          1 MOL1         0.0959
      26    N1      19.333928   19.453363   27.091562 N.4        1 MOL1        -0.5987
      27    H18     19.280312   20.467519   27.224267 H          1 MOL1         0.3605
      28    H19     19.911877   19.077232   27.848677 H          1 MOL1         0.3605
      29    H20     18.389927   19.076042   27.211296 H          1 MOL1         0.3605
@<TRIPOS>BOND
    1     1     2    1
    2     1     3    1
    3     1     4    1
    4     1     5    1
    5     5     6    1
    6     5     7    1
    7     5     8    1
    8     8     9    1
    9     8    10    1
   10     8    11    1
   11    11    12    1
   12    11    13    1
   13    11    14    1
   14    14    15    1
   15    14    16    1
   16    14    17    1
   17    17    18    1
   18    17    19    1
   19    17    20    1
   20    20    21    1
   21    20    22    1
   22    22    23    1
   23    22    24    1
   24    22    25    1
   25    20    26    1
   26    26    27    1
   27    26    28    1
   28    26    29    1
@<TRIPOS>SUBSTRUCTURE
       1 MOL1            1 RESIDUE      1      MOL     
@<SCITEGIC>MOL_PROPERTY
VM2 Rank
SciTegic.value.IntegerValue
196

@<SCITEGIC>MOL_PROPERTY
Conf_Id
SciTegic.value.IntegerValue
269

@<SCITEGIC>MOL_PROPERTY
Probability
SciTegic.value.DoubleValue
0.00

@<SCITEGIC>MOL_PROPERTY
Sum Probability
SciTegic.value.DoubleValue
100.00

@<SCITEGIC>MOL_PROPERTY
Delta G
SciTegic.value.DoubleValue
7.422

@<SCITEGIC>MOL_PROPERTY
G
SciTegic.value.DoubleValue
41.124

@<SCITEGIC>MOL_PROPERTY
E
SciTegic.value.DoubleValue
2.909

@<SCITEGIC>MOL_PROPERTY
-TS
SciTegic.value.DoubleValue
38.214

@<SCITEGIC>MOL_PROPERTY
U+W
SciTegic.value.DoubleValue
-21.235

@<SCITEGIC>MOL_PROPERTY
U
SciTegic.value.DoubleValue
31.323

@<SCITEGIC>MOL_PROPERTY
W
SciTegic.value.DoubleValue
-52.558

@<SCITEGIC>MOL_PROPERTY
W(PB)
SciTegic.value.DoubleValue
-54.930

@<SCITEGIC>MOL_PROPERTY
W(SA)
SciTegic.value.DoubleValue
2.371

@<SCITEGIC>MOL_PROPERTY
Valence
SciTegic.value.DoubleValue
10.065

@<SCITEGIC>MOL_PROPERTY
Coulomb
SciTegic.value.DoubleValue
20.200

@<SCITEGIC>MOL_PROPERTY
VdW
SciTegic.value.DoubleValue
1.059

@<SCITEGIC>MOL_PROPERTY
VdW6
SciTegic.value.DoubleValue
-11.694

@<SCITEGIC>MOL_PROPERTY
VdW12
SciTegic.value.DoubleValue
12.753

@<SCITEGIC>MOL_PROPERTY
Bond
SciTegic.value.DoubleValue
0.384

@<SCITEGIC>MOL_PROPERTY
Angle
SciTegic.value.DoubleValue
2.930

@<SCITEGIC>MOL_PROPERTY
Pdih
SciTegic.value.DoubleValue
6.750

@<SCITEGIC>MOL_PROPERTY
Idih
SciTegic.value.DoubleValue
0.000

@<SCITEGIC>MOL_PROPERTY
Tether
SciTegic.value.DoubleValue
0.000

@<TRIPOS>MOLECULE
guest-s15_vm2.mol2 : vm2 ligand conformer 197
          29          28           1
SMALL
USER_CHARGES
 
@<TRIPOS>ATOM
       1    C1      18.395271   19.737995   20.812357 C.3        1 MOL1        -0.2426
       2    H1      17.983181   18.981772   21.489774 H          1 MOL1         0.0959
       3    H2      17.716841   20.600836   20.816509 H          1 MOL1         0.0959
       4    H3      18.391396   19.315580   19.799138 H          1 MOL1         0.0959
       5    C2      19.823429   20.166906   21.221648 C.3        1 MOL1        -0.1410
       6    H4      19.809813   20.710687   22.175560 H          1 MOL1         0.0948
       7    H5      20.186969   20.886214   20.474483 H          1 MOL1         0.0948
       8    C3      20.814962   18.978933   21.289469 C.3        1 MOL1        -0.1435
       9    H6      20.484736   18.170116   20.623185 H          1 MOL1         0.0948
      10    H7      21.776372   19.318947   20.880261 H          1 MOL1         0.0948
      11    C4      21.091531   18.416459   22.709612 C.3        1 MOL1        -0.1435
      12    H8      21.537927   19.196120   23.338915 H          1 MOL1         0.0948
      13    H9      21.873807   17.652136   22.604068 H          1 MOL1         0.0948
      14    C5      19.881566   17.750044   23.419747 C.3        1 MOL1        -0.1435
      15    H10     19.242501   17.261173   22.672359 H          1 MOL1         0.0948
      16    H11     20.255461   16.931930   24.049248 H          1 MOL1         0.0948
      17    C6      19.020325   18.695212   24.304087 C.3        1 MOL1        -0.1500
      18    H12     18.210823   18.107250   24.756368 H          1 MOL1         0.0948
      19    H13     18.526537   19.439192   23.671041 H          1 MOL1         0.0948
      20    C7      19.785425   19.438943   25.424889 C.3        1 MOL1         0.1162
      21    H14     20.571891   20.044565   24.965991 H          1 MOL1         0.0910
      22    C8      20.439416   18.469733   26.425497 C.3        1 MOL1        -0.2491
      23    H15     21.212182   17.861129   25.941590 H          1 MOL1         0.0959
      24    H16     20.924757   19.022981   27.238902 H          1 MOL1         0.0959
      25    H17     19.696103   17.795200   26.868344 H          1 MOL1         0.0959
      26    N1      18.884076   20.401775   26.146693 N.4        1 MOL1        -0.5987
      27    H18     19.394514   20.926332   26.862920 H          1 MOL1         0.3605
      28    H19     18.115668   19.914268   26.615329 H          1 MOL1         0.3605
      29    H20     18.470265   21.084611   25.505430 H          1 MOL1         0.3605
@<TRIPOS>BOND
    1     1     2    1
    2     1     3    1
    3     1     4    1
    4     1     5    1
    5     5     6    1
    6     5     7    1
    7     5     8    1
    8     8     9    1
    9     8    10    1
   10     8    11    1
   11    11    12    1
   12    11    13    1
   13    11    14    1
   14    14    15    1
   15    14    16    1
   16    14    17    1
   17    17    18    1
   18    17    19    1
   19    17    20    1
   20    20    21    1
   21    20    22    1
   22    22    23    1
   23    22    24    1
   24    22    25    1
   25    20    26    1
   26    26    27    1
   27    26    28    1
   28    26    29    1
@<TRIPOS>SUBSTRUCTURE
       1 MOL1            1 RESIDUE      1      MOL     
@<SCITEGIC>MOL_PROPERTY
VM2 Rank
SciTegic.value.IntegerValue
197

@<SCITEGIC>MOL_PROPERTY
Conf_Id
SciTegic.value.IntegerValue
536

@<SCITEGIC>MOL_PROPERTY
Probability
SciTegic.value.DoubleValue
0.00

@<SCITEGIC>MOL_PROPERTY
Sum Probability
SciTegic.value.DoubleValue
100.00

@<SCITEGIC>MOL_PROPERTY
Delta G
SciTegic.value.DoubleValue
7.459

@<SCITEGIC>MOL_PROPERTY
G
SciTegic.value.DoubleValue
41.161

@<SCITEGIC>MOL_PROPERTY
E
SciTegic.value.DoubleValue
2.818

@<SCITEGIC>MOL_PROPERTY
-TS
SciTegic.value.DoubleValue
38.343

@<SCITEGIC>MOL_PROPERTY
U+W
SciTegic.value.DoubleValue
-21.327

@<SCITEGIC>MOL_PROPERTY
U
SciTegic.value.DoubleValue
31.597

@<SCITEGIC>MOL_PROPERTY
W
SciTegic.value.DoubleValue
-52.923

@<SCITEGIC>MOL_PROPERTY
W(PB)
SciTegic.value.DoubleValue
-55.302

@<SCITEGIC>MOL_PROPERTY
W(SA)
SciTegic.value.DoubleValue
2.378

@<SCITEGIC>MOL_PROPERTY
Valence
SciTegic.value.DoubleValue
9.790

@<SCITEGIC>MOL_PROPERTY
Coulomb
SciTegic.value.DoubleValue
20.848

@<SCITEGIC>MOL_PROPERTY
VdW
SciTegic.value.DoubleValue
0.959

@<SCITEGIC>MOL_PROPERTY
VdW6
SciTegic.value.DoubleValue
-11.921

@<SCITEGIC>MOL_PROPERTY
VdW12
SciTegic.value.DoubleValue
12.880

@<SCITEGIC>MOL_PROPERTY
Bond
SciTegic.value.DoubleValue
0.397

@<SCITEGIC>MOL_PROPERTY
Angle
SciTegic.value.DoubleValue
3.179

@<SCITEGIC>MOL_PROPERTY
Pdih
SciTegic.value.DoubleValue
6.214

@<SCITEGIC>MOL_PROPERTY
Idih
SciTegic.value.DoubleValue
0.000

@<SCITEGIC>MOL_PROPERTY
Tether
SciTegic.value.DoubleValue
0.000

@<TRIPOS>MOLECULE
guest-s15_vm2.mol2 : vm2 ligand conformer 198
          29          28           1
SMALL
USER_CHARGES
 
@<TRIPOS>ATOM
       1    C1      19.827814   19.422810   19.717484 C.3        1 MOL1        -0.2426
       2    H1      19.675153   18.342816   19.834265 H          1 MOL1         0.0959
       3    H2      18.877573   19.874871   19.405021 H          1 MOL1         0.0959
       4    H3      20.551208   19.565923   18.904408 H          1 MOL1         0.0959
       5    C2      20.348071   20.066659   21.022538 C.3        1 MOL1        -0.1410
       6    H4      20.624029   21.109286   20.811617 H          1 MOL1         0.0948
       7    H5      21.276166   19.569922   21.333289 H          1 MOL1         0.0948
       8    C3      19.312801   20.060248   22.177595 C.3        1 MOL1        -0.1435
       9    H6      19.744970   20.605256   23.024602 H          1 MOL1         0.0948
      10    H7      18.436293   20.641856   21.860125 H          1 MOL1         0.0948
      11    C4      18.834269   18.652841   22.632754 C.3        1 MOL1        -0.1435
      12    H8      18.453443   18.110397   21.758085 H          1 MOL1         0.0948
      13    H9      17.964534   18.747898   23.295751 H          1 MOL1         0.0948
      14    C5      19.922624   17.785995   23.321398 C.3        1 MOL1        -0.1435
      15    H10     19.767168   16.743762   23.010193 H          1 MOL1         0.0948
      16    H11     20.921705   18.050071   22.953965 H          1 MOL1         0.0948
      17    C6      19.918998   17.807387   24.874151 C.3        1 MOL1        -0.1500
      18    H12     20.687123   17.096000   25.205819 H          1 MOL1         0.0948
      19    H13     18.966846   17.413951   25.253958 H          1 MOL1         0.0948
      20    C7      20.209239   19.184089   25.515369 C.3        1 MOL1         0.1162
      21    H14     20.962805   19.696138   24.909214 H          1 MOL1         0.0910
      22    C8      20.770095   19.009250   26.936225 C.3        1 MOL1        -0.2491
      23    H15     21.704721   18.434807   26.919501 H          1 MOL1         0.0959
      24    H16     20.988916   19.983614   27.390324 H          1 MOL1         0.0959
      25    H17     20.056381   18.482945   27.582483 H          1 MOL1         0.0959
      26    N1      18.992089   20.066719   25.556487 N.4        1 MOL1        -0.5987
      27    H18     19.213124   20.992788   25.933979 H          1 MOL1         0.3605
      28    H19     18.260154   19.661701   26.146432 H          1 MOL1         0.3605
      29    H20     18.600194   20.194663   24.619479 H          1 MOL1         0.3605
@<TRIPOS>BOND
    1     1     2    1
    2     1     3    1
    3     1     4    1
    4     1     5    1
    5     5     6    1
    6     5     7    1
    7     5     8    1
    8     8     9    1
    9     8    10    1
   10     8    11    1
   11    11    12    1
   12    11    13    1
   13    11    14    1
   14    14    15    1
   15    14    16    1
   16    14    17    1
   17    17    18    1
   18    17    19    1
   19    17    20    1
   20    20    21    1
   21    20    22    1
   22    22    23    1
   23    22    24    1
   24    22    25    1
   25    20    26    1
   26    26    27    1
   27    26    28    1
   28    26    29    1
@<TRIPOS>SUBSTRUCTURE
       1 MOL1            1 RESIDUE      1      MOL     
@<SCITEGIC>MOL_PROPERTY
VM2 Rank
SciTegic.value.IntegerValue
198

@<SCITEGIC>MOL_PROPERTY
Conf_Id
SciTegic.value.IntegerValue
659

@<SCITEGIC>MOL_PROPERTY
Probability
SciTegic.value.DoubleValue
0.00

@<SCITEGIC>MOL_PROPERTY
Sum Probability
SciTegic.value.DoubleValue
100.00

@<SCITEGIC>MOL_PROPERTY
Delta G
SciTegic.value.DoubleValue
7.611

@<SCITEGIC>MOL_PROPERTY
G
SciTegic.value.DoubleValue
41.313

@<SCITEGIC>MOL_PROPERTY
E
SciTegic.value.DoubleValue
3.309

@<SCITEGIC>MOL_PROPERTY
-TS
SciTegic.value.DoubleValue
38.004

@<SCITEGIC>MOL_PROPERTY
U+W
SciTegic.value.DoubleValue
-20.836

@<SCITEGIC>MOL_PROPERTY
U
SciTegic.value.DoubleValue
31.440

@<SCITEGIC>MOL_PROPERTY
W
SciTegic.value.DoubleValue
-52.275

@<SCITEGIC>MOL_PROPERTY
W(PB)
SciTegic.value.DoubleValue
-54.676

@<SCITEGIC>MOL_PROPERTY
W(SA)
SciTegic.value.DoubleValue
2.401

@<SCITEGIC>MOL_PROPERTY
Valence
SciTegic.value.DoubleValue
8.770

@<SCITEGIC>MOL_PROPERTY
Coulomb
SciTegic.value.DoubleValue
21.493

@<SCITEGIC>MOL_PROPERTY
VdW
SciTegic.value.DoubleValue
1.176

@<SCITEGIC>MOL_PROPERTY
VdW6
SciTegic.value.DoubleValue
-11.685

@<SCITEGIC>MOL_PROPERTY
VdW12
SciTegic.value.DoubleValue
12.861

@<SCITEGIC>MOL_PROPERTY
Bond
SciTegic.value.DoubleValue
0.397

@<SCITEGIC>MOL_PROPERTY
Angle
SciTegic.value.DoubleValue
2.827

@<SCITEGIC>MOL_PROPERTY
Pdih
SciTegic.value.DoubleValue
5.547

@<SCITEGIC>MOL_PROPERTY
Idih
SciTegic.value.DoubleValue
0.000

@<SCITEGIC>MOL_PROPERTY
Tether
SciTegic.value.DoubleValue
0.000

@<TRIPOS>MOLECULE
guest-s15_vm2.mol2 : vm2 ligand conformer 199
          29          28           1
SMALL
USER_CHARGES
 
@<TRIPOS>ATOM
       1    C1      19.233954   20.856880   21.492531 C.3        1 MOL1        -0.2426
       2    H1      19.707618   21.838965   21.366199 H          1 MOL1         0.0959
       3    H2      18.260038   20.888919   20.987087 H          1 MOL1         0.0959
       4    H3      19.051859   20.708212   22.560987 H          1 MOL1         0.0959
       5    C2      20.126087   19.744001   20.896188 C.3        1 MOL1        -0.1410
       6    H4      21.133861   19.777684   21.331315 H          1 MOL1         0.0948
       7    H5      20.256408   19.956495   19.825817 H          1 MOL1         0.0948
       8    C3      19.520395   18.325734   21.045044 C.3        1 MOL1        -0.1435
       9    H6      18.423176   18.377308   21.022614 H          1 MOL1         0.0948
      10    H7      19.803410   17.746964   20.154937 H          1 MOL1         0.0948
      11    C4      19.991338   17.518162   22.284904 C.3        1 MOL1        -0.1435
      12    H8      21.082955   17.396176   22.262591 H          1 MOL1         0.0948
      13    H9      19.583242   16.503003   22.183160 H          1 MOL1         0.0948
      14    C5      19.539446   18.071888   23.660675 C.3        1 MOL1        -0.1435
      15    H10     18.585430   18.603207   23.553512 H          1 MOL1         0.0948
      16    H11     19.335616   17.214424   24.315269 H          1 MOL1         0.0948
      17    C6      20.611552   18.966648   24.342318 C.3        1 MOL1        -0.1500
      18    H12     20.899307   19.784874   23.673460 H          1 MOL1         0.0948
      19    H13     21.524594   18.376644   24.496488 H          1 MOL1         0.0948
      20    C7      20.185332   19.575095   25.699506 C.3        1 MOL1         0.1162
      21    H14     21.018132   20.189277   26.055825 H          1 MOL1         0.0910
      22    C8      19.918768   18.494244   26.761590 C.3        1 MOL1        -0.2491
      23    H15     19.029783   17.899256   26.520864 H          1 MOL1         0.0959
      24    H16     20.775132   17.814191   26.849511 H          1 MOL1         0.0959
      25    H17     19.757346   18.954165   27.744238 H          1 MOL1         0.0959
      26    N1      19.009128   20.503349   25.571244 N.4        1 MOL1        -0.5987
      27    H18     19.200003   21.262099   24.910953 H          1 MOL1         0.3605
      28    H19     18.773953   20.932398   26.470946 H          1 MOL1         0.3605
      29    H20     18.178309   20.005019   25.242565 H          1 MOL1         0.3605
@<TRIPOS>BOND
    1     1     2    1
    2     1     3    1
    3     1     4    1
    4     1     5    1
    5     5     6    1
    6     5     7    1
    7     5     8    1
    8     8     9    1
    9     8    10    1
   10     8    11    1
   11    11    12    1
   12    11    13    1
   13    11    14    1
   14    14    15    1
   15    14    16    1
   16    14    17    1
   17    17    18    1
   18    17    19    1
   19    17    20    1
   20    20    21    1
   21    20    22    1
   22    22    23    1
   23    22    24    1
   24    22    25    1
   25    20    26    1
   26    26    27    1
   27    26    28    1
   28    26    29    1
@<TRIPOS>SUBSTRUCTURE
       1 MOL1            1 RESIDUE      1      MOL     
@<SCITEGIC>MOL_PROPERTY
VM2 Rank
SciTegic.value.IntegerValue
199

@<SCITEGIC>MOL_PROPERTY
Conf_Id
SciTegic.value.IntegerValue
98

@<SCITEGIC>MOL_PROPERTY
Probability
SciTegic.value.DoubleValue
0.00

@<SCITEGIC>MOL_PROPERTY
Sum Probability
SciTegic.value.DoubleValue
100.00

@<SCITEGIC>MOL_PROPERTY
Delta G
SciTegic.value.DoubleValue
7.685

@<SCITEGIC>MOL_PROPERTY
G
SciTegic.value.DoubleValue
41.387

@<SCITEGIC>MOL_PROPERTY
E
SciTegic.value.DoubleValue
2.824

@<SCITEGIC>MOL_PROPERTY
-TS
SciTegic.value.DoubleValue
38.563

@<SCITEGIC>MOL_PROPERTY
U+W
SciTegic.value.DoubleValue
-21.321

@<SCITEGIC>MOL_PROPERTY
U
SciTegic.value.DoubleValue
31.481

@<SCITEGIC>MOL_PROPERTY
W
SciTegic.value.DoubleValue
-52.802

@<SCITEGIC>MOL_PROPERTY
W(PB)
SciTegic.value.DoubleValue
-55.148

@<SCITEGIC>MOL_PROPERTY
W(SA)
SciTegic.value.DoubleValue
2.346

@<SCITEGIC>MOL_PROPERTY
Valence
SciTegic.value.DoubleValue
9.332

@<SCITEGIC>MOL_PROPERTY
Coulomb
SciTegic.value.DoubleValue
21.339

@<SCITEGIC>MOL_PROPERTY
VdW
SciTegic.value.DoubleValue
0.810

@<SCITEGIC>MOL_PROPERTY
VdW6
SciTegic.value.DoubleValue
-11.777

@<SCITEGIC>MOL_PROPERTY
VdW12
SciTegic.value.DoubleValue
12.587

@<SCITEGIC>MOL_PROPERTY
Bond
SciTegic.value.DoubleValue
0.375

@<SCITEGIC>MOL_PROPERTY
Angle
SciTegic.value.DoubleValue
2.763

@<SCITEGIC>MOL_PROPERTY
Pdih
SciTegic.value.DoubleValue
6.194

@<SCITEGIC>MOL_PROPERTY
Idih
SciTegic.value.DoubleValue
0.000

@<SCITEGIC>MOL_PROPERTY
Tether
SciTegic.value.DoubleValue
0.000

@<TRIPOS>MOLECULE
guest-s15_vm2.mol2 : vm2 ligand conformer 200
          29          28           1
SMALL
USER_CHARGES
 
@<TRIPOS>ATOM
       1    C1      19.040369   19.660677   19.781302 C.3        1 MOL1        -0.2426
       2    H1      20.002073   19.594435   19.256146 H          1 MOL1         0.0959
       3    H2      18.650377   18.643795   19.914406 H          1 MOL1         0.0959
       4    H3      18.339604   20.201139   19.131874 H          1 MOL1         0.0959
       5    C2      19.195888   20.389571   21.134913 C.3        1 MOL1        -0.1410
       6    H4      18.224401   20.423336   21.646962 H          1 MOL1         0.0948
       7    H5      19.479792   21.434143   20.944606 H          1 MOL1         0.0948
       8    C3      20.257924   19.745178   22.057789 C.3        1 MOL1        -0.1435
       9    H6      21.231811   19.751942   21.548822 H          1 MOL1         0.0948
      10    H7      20.386797   20.378148   22.943770 H          1 MOL1         0.0948
      11    C4      19.911961   18.291322   22.472122 C.3        1 MOL1        -0.1435
      12    H8      20.033626   17.647574   21.590389 H          1 MOL1         0.0948
      13    H9      18.856911   18.198924   22.761569 H          1 MOL1         0.0948
      14    C5      20.828268   17.746421   23.597427 C.3        1 MOL1        -0.1435
      15    H10     21.026139   16.686018   23.387897 H          1 MOL1         0.0948
      16    H11     21.809509   18.239576   23.558666 H          1 MOL1         0.0948
      17    C6      20.248840   17.832011   25.036286 C.3        1 MOL1        -0.1500
      18    H12     20.968953   17.338467   25.702566 H          1 MOL1         0.0948
      19    H13     19.326647   17.239914   25.104648 H          1 MOL1         0.0948
      20    C7      19.990100   19.262353   25.564074 C.3        1 MOL1         0.1162
      21    H14     20.819600   19.902479   25.248584 H          1 MOL1         0.0910
      22    C8      19.935373   19.266259   27.100514 C.3        1 MOL1        -0.2491
      23    H15     20.880196   18.905903   27.526210 H          1 MOL1         0.0959
      24    H16     19.767044   20.281391   27.480835 H          1 MOL1         0.0959
      25    H17     19.126424   18.623727   27.470346 H          1 MOL1         0.0959
      26    N1      18.727278   19.862209   25.009573 N.4        1 MOL1        -0.5987
      27    H18     17.903688   19.330681   25.304707 H          1 MOL1         0.3605
      28    H19     18.745983   19.865917   23.985240 H          1 MOL1         0.3605
      29    H20     18.600231   20.827861   25.326602 H          1 MOL1         0.3605
@<TRIPOS>BOND
    1     1     2    1
    2     1     3    1
    3     1     4    1
    4     1     5    1
    5     5     6    1
    6     5     7    1
    7     5     8    1
    8     8     9    1
    9     8    10    1
   10     8    11    1
   11    11    12    1
   12    11    13    1
   13    11    14    1
   14    14    15    1
   15    14    16    1
   16    14    17    1
   17    17    18    1
   18    17    19    1
   19    17    20    1
   20    20    21    1
   21    20    22    1
   22    22    23    1
   23    22    24    1
   24    22    25    1
   25    20    26    1
   26    26    27    1
   27    26    28    1
   28    26    29    1
@<TRIPOS>SUBSTRUCTURE
       1 MOL1            1 RESIDUE      1      MOL     
@<SCITEGIC>MOL_PROPERTY
VM2 Rank
SciTegic.value.IntegerValue
200

@<SCITEGIC>MOL_PROPERTY
Conf_Id
SciTegic.value.IntegerValue
1299

@<SCITEGIC>MOL_PROPERTY
Probability
SciTegic.value.DoubleValue
0.00

@<SCITEGIC>MOL_PROPERTY
Sum Probability
SciTegic.value.DoubleValue
100.00

@<SCITEGIC>MOL_PROPERTY
Delta G
SciTegic.value.DoubleValue
7.701

@<SCITEGIC>MOL_PROPERTY
G
SciTegic.value.DoubleValue
41.403

@<SCITEGIC>MOL_PROPERTY
E
SciTegic.value.DoubleValue
3.131

@<SCITEGIC>MOL_PROPERTY
-TS
SciTegic.value.DoubleValue
38.271

@<SCITEGIC>MOL_PROPERTY
U+W
SciTegic.value.DoubleValue
-21.013

@<SCITEGIC>MOL_PROPERTY
U
SciTegic.value.DoubleValue
30.362

@<SCITEGIC>MOL_PROPERTY
W
SciTegic.value.DoubleValue
-51.375

@<SCITEGIC>MOL_PROPERTY
W(PB)
SciTegic.value.DoubleValue
-53.813

@<SCITEGIC>MOL_PROPERTY
W(SA)
SciTegic.value.DoubleValue
2.438

@<SCITEGIC>MOL_PROPERTY
Valence
SciTegic.value.DoubleValue
7.956

@<SCITEGIC>MOL_PROPERTY
Coulomb
SciTegic.value.DoubleValue
21.427

@<SCITEGIC>MOL_PROPERTY
VdW
SciTegic.value.DoubleValue
0.978

@<SCITEGIC>MOL_PROPERTY
VdW6
SciTegic.value.DoubleValue
-11.470

@<SCITEGIC>MOL_PROPERTY
VdW12
SciTegic.value.DoubleValue
12.449

@<SCITEGIC>MOL_PROPERTY
Bond
SciTegic.value.DoubleValue
0.321

@<SCITEGIC>MOL_PROPERTY
Angle
SciTegic.value.DoubleValue
2.290

@<SCITEGIC>MOL_PROPERTY
Pdih
SciTegic.value.DoubleValue
5.345

@<SCITEGIC>MOL_PROPERTY
Idih
SciTegic.value.DoubleValue
0.000

@<SCITEGIC>MOL_PROPERTY
Tether
SciTegic.value.DoubleValue
0.000

@<TRIPOS>MOLECULE
guest-s15_vm2.mol2 : vm2 ligand conformer 201
          29          28           1
SMALL
USER_CHARGES
 
@<TRIPOS>ATOM
       1    C1      18.174083   19.327159   20.125235 C.3        1 MOL1        -0.2426
       2    H1      17.906896   20.028383   19.324012 H          1 MOL1         0.0959
       3    H2      18.368837   18.349254   19.665831 H          1 MOL1         0.0959
       4    H3      17.305018   19.226441   20.788394 H          1 MOL1         0.0959
       5    C2      19.409451   19.831350   20.900556 C.3        1 MOL1        -0.1410
       6    H4      19.195838   20.824945   21.318664 H          1 MOL1         0.0948
       7    H5      20.251096   19.955437   20.204657 H          1 MOL1         0.0948
       8    C3      19.808689   18.859547   22.032398 C.3        1 MOL1        -0.1435
       9    H6      18.955535   18.714672   22.703900 H          1 MOL1         0.0948
      10    H7      20.030921   17.873016   21.602207 H          1 MOL1         0.0948
      11    C4      21.047447   19.363525   22.812404 C.3        1 MOL1        -0.1435
      12    H8      20.911182   20.403323   23.137680 H          1 MOL1         0.0948
      13    H9      21.898196   19.384034   22.116972 H          1 MOL1         0.0948
      14    C5      21.422925   18.463499   24.018926 C.3        1 MOL1        -0.1435
      15    H10     21.013629   17.452461   23.892698 H          1 MOL1         0.0948
      16    H11     22.513571   18.330501   24.004386 H          1 MOL1         0.0948
      17    C6      21.054927   19.038538   25.417618 C.3        1 MOL1        -0.1500
      18    H12     21.523197   20.024327   25.537004 H          1 MOL1         0.0948
      19    H13     21.526524   18.401113   26.177168 H          1 MOL1         0.0948
      20    C7      19.551927   19.151586   25.774036 C.3        1 MOL1         0.1162
      21    H14     19.497058   19.470186   26.819581 H          1 MOL1         0.0910
      22    C8      18.826011   17.798155   25.676913 C.3        1 MOL1        -0.2491
      23    H15     18.776934   17.430496   24.646295 H          1 MOL1         0.0959
      24    H16     19.337065   17.041043   26.284437 H          1 MOL1         0.0959
      25    H17     17.798843   17.885696   26.051535 H          1 MOL1         0.0959
      26    N1      18.840539   20.222641   24.995915 N.4        1 MOL1        -0.5987
      27    H18     19.250066   21.144622   25.172465 H          1 MOL1         0.3605
      28    H19     17.849180   20.273812   25.247966 H          1 MOL1         0.3605
      29    H20     18.904001   20.044761   23.990204 H          1 MOL1         0.3605
@<TRIPOS>BOND
    1     1     2    1
    2     1     3    1
    3     1     4    1
    4     1     5    1
    5     5     6    1
    6     5     7    1
    7     5     8    1
    8     8     9    1
    9     8    10    1
   10     8    11    1
   11    11    12    1
   12    11    13    1
   13    11    14    1
   14    14    15    1
   15    14    16    1
   16    14    17    1
   17    17    18    1
   18    17    19    1
   19    17    20    1
   20    20    21    1
   21    20    22    1
   22    22    23    1
   23    22    24    1
   24    22    25    1
   25    20    26    1
   26    26    27    1
   27    26    28    1
   28    26    29    1
@<TRIPOS>SUBSTRUCTURE
       1 MOL1            1 RESIDUE      1      MOL     
@<SCITEGIC>MOL_PROPERTY
VM2 Rank
SciTegic.value.IntegerValue
201

@<SCITEGIC>MOL_PROPERTY
Conf_Id
SciTegic.value.IntegerValue
543

@<SCITEGIC>MOL_PROPERTY
Probability
SciTegic.value.DoubleValue
0.00

@<SCITEGIC>MOL_PROPERTY
Sum Probability
SciTegic.value.DoubleValue
100.00

@<SCITEGIC>MOL_PROPERTY
Delta G
SciTegic.value.DoubleValue
7.851

@<SCITEGIC>MOL_PROPERTY
G
SciTegic.value.DoubleValue
41.553

@<SCITEGIC>MOL_PROPERTY
E
SciTegic.value.DoubleValue
3.007

@<SCITEGIC>MOL_PROPERTY
-TS
SciTegic.value.DoubleValue
38.546

@<SCITEGIC>MOL_PROPERTY
U+W
SciTegic.value.DoubleValue
-21.138

@<SCITEGIC>MOL_PROPERTY
U
SciTegic.value.DoubleValue
30.269

@<SCITEGIC>MOL_PROPERTY
W
SciTegic.value.DoubleValue
-51.406

@<SCITEGIC>MOL_PROPERTY
W(PB)
SciTegic.value.DoubleValue
-53.818

@<SCITEGIC>MOL_PROPERTY
W(SA)
SciTegic.value.DoubleValue
2.411

@<SCITEGIC>MOL_PROPERTY
Valence
SciTegic.value.DoubleValue
8.045

@<SCITEGIC>MOL_PROPERTY
Coulomb
SciTegic.value.DoubleValue
21.611

@<SCITEGIC>MOL_PROPERTY
VdW
SciTegic.value.DoubleValue
0.612

@<SCITEGIC>MOL_PROPERTY
VdW6
SciTegic.value.DoubleValue
-11.609

@<SCITEGIC>MOL_PROPERTY
VdW12
SciTegic.value.DoubleValue
12.222

@<SCITEGIC>MOL_PROPERTY
Bond
SciTegic.value.DoubleValue
0.344

@<SCITEGIC>MOL_PROPERTY
Angle
SciTegic.value.DoubleValue
2.670

@<SCITEGIC>MOL_PROPERTY
Pdih
SciTegic.value.DoubleValue
5.031

@<SCITEGIC>MOL_PROPERTY
Idih
SciTegic.value.DoubleValue
0.000

@<SCITEGIC>MOL_PROPERTY
Tether
SciTegic.value.DoubleValue
0.000

@<TRIPOS>MOLECULE
guest-s15_vm2.mol2 : vm2 ligand conformer 202
          29          28           1
SMALL
USER_CHARGES
 
@<TRIPOS>ATOM
       1    C1      20.511552   20.325091   20.709586 C.3        1 MOL1        -0.2426
       2    H1      20.174587   21.302981   21.076980 H          1 MOL1         0.0959
       3    H2      21.334039   19.985906   21.347555 H          1 MOL1         0.0959
       4    H3      20.918361   20.471175   19.700631 H          1 MOL1         0.0959
       5    C2      19.343691   19.312484   20.676767 C.3        1 MOL1        -0.1410
       6    H4      19.691520   18.342949   20.294209 H          1 MOL1         0.0948
       7    H5      18.605714   19.676566   19.948297 H          1 MOL1         0.0948
       8    C3      18.630474   19.129714   22.041668 C.3        1 MOL1        -0.1435
       9    H6      18.626409   20.075801   22.596600 H          1 MOL1         0.0948
      10    H7      17.573967   18.908669   21.836064 H          1 MOL1         0.0948
      11    C4      19.177700   17.967843   22.915115 C.3        1 MOL1        -0.1435
      12    H8      19.140105   17.041559   22.325446 H          1 MOL1         0.0948
      13    H9      18.494048   17.793597   23.754450 H          1 MOL1         0.0948
      14    C5      20.619288   18.140906   23.458391 C.3        1 MOL1        -0.1435
      15    H10     20.884987   17.247154   24.037995 H          1 MOL1         0.0948
      16    H11     21.316835   18.136402   22.611914 H          1 MOL1         0.0948
      17    C6      20.884321   19.410005   24.321082 C.3        1 MOL1        -0.1500
      18    H12     20.721156   20.312280   23.719492 H          1 MOL1         0.0948
      19    H13     21.953534   19.422023   24.569881 H          1 MOL1         0.0948
      20    C7      20.099123   19.541644   25.651389 C.3        1 MOL1         0.1162
      21    H14     20.558674   20.362702   26.210237 H          1 MOL1         0.0910
      22    C8      20.204226   18.279381   26.524665 C.3        1 MOL1        -0.2491
      23    H15     19.672999   17.431473   26.076052 H          1 MOL1         0.0959
      24    H16     21.253223   17.992357   26.668722 H          1 MOL1         0.0959
      25    H17     19.769673   18.460772   27.515291 H          1 MOL1         0.0959
      26    N1      18.665624   19.948932   25.455337 N.4        1 MOL1        -0.5987
      27    H18     18.159578   19.255388   24.900197 H          1 MOL1         0.3605
      28    H19     18.596086   20.846625   24.968028 H          1 MOL1         0.3605
      29    H20     18.179472   20.047646   26.351247 H          1 MOL1         0.3605
@<TRIPOS>BOND
    1     1     2    1
    2     1     3    1
    3     1     4    1
    4     1     5    1
    5     5     6    1
    6     5     7    1
    7     5     8    1
    8     8     9    1
    9     8    10    1
   10     8    11    1
   11    11    12    1
   12    11    13    1
   13    11    14    1
   14    14    15    1
   15    14    16    1
   16    14    17    1
   17    17    18    1
   18    17    19    1
   19    17    20    1
   20    20    21    1
   21    20    22    1
   22    22    23    1
   23    22    24    1
   24    22    25    1
   25    20    26    1
   26    26    27    1
   27    26    28    1
   28    26    29    1
@<TRIPOS>SUBSTRUCTURE
       1 MOL1            1 RESIDUE      1      MOL     
@<SCITEGIC>MOL_PROPERTY
VM2 Rank
SciTegic.value.IntegerValue
202

@<SCITEGIC>MOL_PROPERTY
Conf_Id
SciTegic.value.IntegerValue
307

@<SCITEGIC>MOL_PROPERTY
Probability
SciTegic.value.DoubleValue
0.00

@<SCITEGIC>MOL_PROPERTY
Sum Probability
SciTegic.value.DoubleValue
100.00

@<SCITEGIC>MOL_PROPERTY
Delta G
SciTegic.value.DoubleValue
7.852

@<SCITEGIC>MOL_PROPERTY
G
SciTegic.value.DoubleValue
41.554

@<SCITEGIC>MOL_PROPERTY
E
SciTegic.value.DoubleValue
2.550

@<SCITEGIC>MOL_PROPERTY
-TS
SciTegic.value.DoubleValue
39.004

@<SCITEGIC>MOL_PROPERTY
U+W
SciTegic.value.DoubleValue
-21.594

@<SCITEGIC>MOL_PROPERTY
U
SciTegic.value.DoubleValue
31.128

@<SCITEGIC>MOL_PROPERTY
W
SciTegic.value.DoubleValue
-52.722

@<SCITEGIC>MOL_PROPERTY
W(PB)
SciTegic.value.DoubleValue
-55.073

@<SCITEGIC>MOL_PROPERTY
W(SA)
SciTegic.value.DoubleValue
2.351

@<SCITEGIC>MOL_PROPERTY
Valence
SciTegic.value.DoubleValue
8.643

@<SCITEGIC>MOL_PROPERTY
Coulomb
SciTegic.value.DoubleValue
21.963

@<SCITEGIC>MOL_PROPERTY
VdW
SciTegic.value.DoubleValue
0.522

@<SCITEGIC>MOL_PROPERTY
VdW6
SciTegic.value.DoubleValue
-13.225

@<SCITEGIC>MOL_PROPERTY
VdW12
SciTegic.value.DoubleValue
13.747

@<SCITEGIC>MOL_PROPERTY
Bond
SciTegic.value.DoubleValue
0.450

@<SCITEGIC>MOL_PROPERTY
Angle
SciTegic.value.DoubleValue
3.746

@<SCITEGIC>MOL_PROPERTY
Pdih
SciTegic.value.DoubleValue
4.447

@<SCITEGIC>MOL_PROPERTY
Idih
SciTegic.value.DoubleValue
0.000

@<SCITEGIC>MOL_PROPERTY
Tether
SciTegic.value.DoubleValue
0.000

@<TRIPOS>MOLECULE
guest-s15_vm2.mol2 : vm2 ligand conformer 203
          29          28           1
SMALL
USER_CHARGES
 
@<TRIPOS>ATOM
       1    C1      19.953983   20.323449   20.030460 C.3        1 MOL1        -0.2426
       2    H1      18.998372   20.761556   19.714302 H          1 MOL1         0.0959
       3    H2      20.336350   20.919353   20.866813 H          1 MOL1         0.0959
       4    H3      20.659857   20.426700   19.196215 H          1 MOL1         0.0959
       5    C2      19.778044   18.834674   20.410152 C.3        1 MOL1        -0.1410
       6    H4      20.752415   18.380212   20.637375 H          1 MOL1         0.0948
       7    H5      19.395394   18.302300   19.528097 H          1 MOL1         0.0948
       8    C3      18.792638   18.617481   21.587269 C.3        1 MOL1        -0.1435
       9    H6      18.071163   19.444636   21.636891 H          1 MOL1         0.0948
      10    H7      18.197007   17.719380   21.372674 H          1 MOL1         0.0948
      11    C4      19.463149   18.412813   22.970438 C.3        1 MOL1        -0.1435
      12    H8      20.100959   17.518805   22.938618 H          1 MOL1         0.0948
      13    H9      18.663847   18.202648   23.689593 H          1 MOL1         0.0948
      14    C5      20.293468   19.623782   23.460166 C.3        1 MOL1        -0.1435
      15    H10     21.073319   19.838369   22.719224 H          1 MOL1         0.0948
      16    H11     19.657822   20.518422   23.497632 H          1 MOL1         0.0948
      17    C6      21.012064   19.420084   24.824668 C.3        1 MOL1        -0.1500
      18    H12     21.601579   20.325657   25.018762 H          1 MOL1         0.0948
      19    H13     21.749731   18.611776   24.734460 H          1 MOL1         0.0948
      20    C7      20.125389   19.177600   26.073843 C.3        1 MOL1         0.1162
      21    H14     20.689212   19.550203   26.934651 H          1 MOL1         0.0910
      22    C8      19.873704   17.681474   26.338894 C.3        1 MOL1        -0.2491
      23    H15     19.332397   17.546870   27.283369 H          1 MOL1         0.0959
      24    H16     19.285538   17.207221   25.547867 H          1 MOL1         0.0959
      25    H17     20.823195   17.138892   26.425539 H          1 MOL1         0.0959
      26    N1      18.843561   19.964644   26.058110 N.4        1 MOL1        -0.5987
      27    H18     19.024461   20.969152   25.975298 H          1 MOL1         0.3605
      28    H19     18.303001   19.819191   26.915592 H          1 MOL1         0.3605
      29    H20     18.254405   19.691528   25.267633 H          1 MOL1         0.3605
@<TRIPOS>BOND
    1     1     2    1
    2     1     3    1
    3     1     4    1
    4     1     5    1
    5     5     6    1
    6     5     7    1
    7     5     8    1
    8     8     9    1
    9     8    10    1
   10     8    11    1
   11    11    12    1
   12    11    13    1
   13    11    14    1
   14    14    15    1
   15    14    16    1
   16    14    17    1
   17    17    18    1
   18    17    19    1
   19    17    20    1
   20    20    21    1
   21    20    22    1
   22    22    23    1
   23    22    24    1
   24    22    25    1
   25    20    26    1
   26    26    27    1
   27    26    28    1
   28    26    29    1
@<TRIPOS>SUBSTRUCTURE
       1 MOL1            1 RESIDUE      1      MOL     
@<SCITEGIC>MOL_PROPERTY
VM2 Rank
SciTegic.value.IntegerValue
203

@<SCITEGIC>MOL_PROPERTY
Conf_Id
SciTegic.value.IntegerValue
145

@<SCITEGIC>MOL_PROPERTY
Probability
SciTegic.value.DoubleValue
0.00

@<SCITEGIC>MOL_PROPERTY
Sum Probability
SciTegic.value.DoubleValue
100.00

@<SCITEGIC>MOL_PROPERTY
Delta G
SciTegic.value.DoubleValue
7.859

@<SCITEGIC>MOL_PROPERTY
G
SciTegic.value.DoubleValue
41.560

@<SCITEGIC>MOL_PROPERTY
E
SciTegic.value.DoubleValue
3.396

@<SCITEGIC>MOL_PROPERTY
-TS
SciTegic.value.DoubleValue
38.164

@<SCITEGIC>MOL_PROPERTY
U+W
SciTegic.value.DoubleValue
-20.748

@<SCITEGIC>MOL_PROPERTY
U
SciTegic.value.DoubleValue
31.583

@<SCITEGIC>MOL_PROPERTY
W
SciTegic.value.DoubleValue
-52.331

@<SCITEGIC>MOL_PROPERTY
W(PB)
SciTegic.value.DoubleValue
-54.756

@<SCITEGIC>MOL_PROPERTY
W(SA)
SciTegic.value.DoubleValue
2.425

@<SCITEGIC>MOL_PROPERTY
Valence
SciTegic.value.DoubleValue
9.577

@<SCITEGIC>MOL_PROPERTY
Coulomb
SciTegic.value.DoubleValue
20.656

@<SCITEGIC>MOL_PROPERTY
VdW
SciTegic.value.DoubleValue
1.349

@<SCITEGIC>MOL_PROPERTY
VdW6
SciTegic.value.DoubleValue
-11.328

@<SCITEGIC>MOL_PROPERTY
VdW12
SciTegic.value.DoubleValue
12.677

@<SCITEGIC>MOL_PROPERTY
Bond
SciTegic.value.DoubleValue
0.393

@<SCITEGIC>MOL_PROPERTY
Angle
SciTegic.value.DoubleValue
3.219

@<SCITEGIC>MOL_PROPERTY
Pdih
SciTegic.value.DoubleValue
5.965

@<SCITEGIC>MOL_PROPERTY
Idih
SciTegic.value.DoubleValue
0.000

@<SCITEGIC>MOL_PROPERTY
Tether
SciTegic.value.DoubleValue
0.000

@<TRIPOS>MOLECULE
guest-s15_vm2.mol2 : vm2 ligand conformer 204
          29          28           1
SMALL
USER_CHARGES
 
@<TRIPOS>ATOM
       1    C1      19.495224   20.908597   21.785350 C.3        1 MOL1        -0.2426
       2    H1      18.517699   20.622923   22.184670 H          1 MOL1         0.0959
       3    H2      20.149833   21.201345   22.615082 H          1 MOL1         0.0959
       4    H3      19.338064   21.797242   21.160407 H          1 MOL1         0.0959
       5    C2      20.125062   19.775134   20.947098 C.3        1 MOL1        -0.1410
       6    H4      20.999791   20.188645   20.425842 H          1 MOL1         0.0948
       7    H5      19.425870   19.463854   20.158666 H          1 MOL1         0.0948
       8    C3      20.592224   18.537714   21.757445 C.3        1 MOL1        -0.1435
       9    H6      21.249702   17.959571   21.093476 H          1 MOL1         0.0948
      10    H7      21.234985   18.835793   22.592902 H          1 MOL1         0.0948
      11    C4      19.467246   17.572060   22.220770 C.3        1 MOL1        -0.1435
      12    H8      19.919434   16.583980   22.383812 H          1 MOL1         0.0948
      13    H9      18.755351   17.430476   21.396159 H          1 MOL1         0.0948
      14    C5      18.681906   17.943891   23.507911 C.3        1 MOL1        -0.1435
      15    H10     18.087608   18.850175   23.360777 H          1 MOL1         0.0948
      16    H11     17.940979   17.148364   23.667470 H          1 MOL1         0.0948
      17    C6      19.545859   18.038494   24.795141 C.3        1 MOL1        -0.1500
      18    H12     20.370430   17.316245   24.730154 H          1 MOL1         0.0948
      19    H13     18.938057   17.721617   25.653114 H          1 MOL1         0.0948
      20    C7      20.104110   19.448263   25.093063 C.3        1 MOL1         0.1162
      21    H14     20.628134   19.815013   24.208209 H          1 MOL1         0.0910
      22    C8      21.109243   19.389774   26.253951 C.3        1 MOL1        -0.2491
      23    H15     21.531114   20.382653   26.452958 H          1 MOL1         0.0959
      24    H16     20.632500   19.029893   27.174359 H          1 MOL1         0.0959
      25    H17     21.942003   18.716715   26.014690 H          1 MOL1         0.0959
      26    N1      19.015127   20.442073   25.393271 N.4        1 MOL1        -0.5987
      27    H18     19.398555   21.374771   25.571305 H          1 MOL1         0.3605
      28    H19     18.480564   20.167834   26.221983 H          1 MOL1         0.3605
      29    H20     18.357259   20.521782   24.613679 H          1 MOL1         0.3605
@<TRIPOS>BOND
    1     1     2    1
    2     1     3    1
    3     1     4    1
    4     1     5    1
    5     5     6    1
    6     5     7    1
    7     5     8    1
    8     8     9    1
    9     8    10    1
   10     8    11    1
   11    11    12    1
   12    11    13    1
   13    11    14    1
   14    14    15    1
   15    14    16    1
   16    14    17    1
   17    17    18    1
   18    17    19    1
   19    17    20    1
   20    20    21    1
   21    20    22    1
   22    22    23    1
   23    22    24    1
   24    22    25    1
   25    20    26    1
   26    26    27    1
   27    26    28    1
   28    26    29    1
@<TRIPOS>SUBSTRUCTURE
       1 MOL1            1 RESIDUE      1      MOL     
@<SCITEGIC>MOL_PROPERTY
VM2 Rank
SciTegic.value.IntegerValue
204

@<SCITEGIC>MOL_PROPERTY
Conf_Id
SciTegic.value.IntegerValue
1222

@<SCITEGIC>MOL_PROPERTY
Probability
SciTegic.value.DoubleValue
0.00

@<SCITEGIC>MOL_PROPERTY
Sum Probability
SciTegic.value.DoubleValue
100.00

@<SCITEGIC>MOL_PROPERTY
Delta G
SciTegic.value.DoubleValue
8.131

@<SCITEGIC>MOL_PROPERTY
G
SciTegic.value.DoubleValue
41.833

@<SCITEGIC>MOL_PROPERTY
E
SciTegic.value.DoubleValue
3.219

@<SCITEGIC>MOL_PROPERTY
-TS
SciTegic.value.DoubleValue
38.614

@<SCITEGIC>MOL_PROPERTY
U+W
SciTegic.value.DoubleValue
-20.925

@<SCITEGIC>MOL_PROPERTY
U
SciTegic.value.DoubleValue
31.532

@<SCITEGIC>MOL_PROPERTY
W
SciTegic.value.DoubleValue
-52.457

@<SCITEGIC>MOL_PROPERTY
W(PB)
SciTegic.value.DoubleValue
-54.794

@<SCITEGIC>MOL_PROPERTY
W(SA)
SciTegic.value.DoubleValue
2.337

@<SCITEGIC>MOL_PROPERTY
Valence
SciTegic.value.DoubleValue
9.542

@<SCITEGIC>MOL_PROPERTY
Coulomb
SciTegic.value.DoubleValue
21.808

@<SCITEGIC>MOL_PROPERTY
VdW
SciTegic.value.DoubleValue
0.182

@<SCITEGIC>MOL_PROPERTY
VdW6
SciTegic.value.DoubleValue
-12.225

@<SCITEGIC>MOL_PROPERTY
VdW12
SciTegic.value.DoubleValue
12.407

@<SCITEGIC>MOL_PROPERTY
Bond
SciTegic.value.DoubleValue
0.388

@<SCITEGIC>MOL_PROPERTY
Angle
SciTegic.value.DoubleValue
3.813

@<SCITEGIC>MOL_PROPERTY
Pdih
SciTegic.value.DoubleValue
5.341

@<SCITEGIC>MOL_PROPERTY
Idih
SciTegic.value.DoubleValue
0.000

@<SCITEGIC>MOL_PROPERTY
Tether
SciTegic.value.DoubleValue
0.000

@<TRIPOS>MOLECULE
guest-s15_vm2.mol2 : vm2 ligand conformer 205
          29          28           1
SMALL
USER_CHARGES
 
@<TRIPOS>ATOM
       1    C1      20.142155   18.193140   19.910899 C.3        1 MOL1        -0.2426
       2    H1      20.862471   17.376717   19.770897 H          1 MOL1         0.0959
       3    H2      19.162194   17.840395   19.563838 H          1 MOL1         0.0959
       4    H3      20.451379   19.029334   19.270255 H          1 MOL1         0.0959
       5    C2      20.085808   18.621702   21.392528 C.3        1 MOL1        -0.1410
       6    H4      21.091706   18.927825   21.704425 H          1 MOL1         0.0948
       7    H5      19.797413   17.760153   22.009351 H          1 MOL1         0.0948
       8    C3      19.092969   19.785264   21.611109 C.3        1 MOL1        -0.1435
       9    H6      19.470931   20.684369   21.105294 H          1 MOL1         0.0948
      10    H7      18.143375   19.536802   21.117313 H          1 MOL1         0.0948
      11    C4      18.785718   20.117804   23.094704 C.3        1 MOL1        -0.1435
      12    H8      18.288862   19.272589   23.579231 H          1 MOL1         0.0948
      13    H9      18.033744   20.919021   23.088630 H          1 MOL1         0.0948
      14    C5      19.991591   20.622790   23.932969 C.3        1 MOL1        -0.1435
      15    H10     20.621802   21.258700   23.296269 H          1 MOL1         0.0948
      16    H11     19.610003   21.298126   24.710414 H          1 MOL1         0.0948
      17    C6      20.892583   19.551162   24.619811 C.3        1 MOL1        -0.1500
      18    H12     21.687761   20.098686   25.142372 H          1 MOL1         0.0948
      19    H13     21.420684   18.947187   23.875339 H          1 MOL1         0.0948
      20    C7      20.232309   18.619981   25.671231 C.3        1 MOL1         0.1162
      21    H14     21.006206   18.388305   26.409562 H          1 MOL1         0.0910
      22    C8      19.792252   17.269727   25.075706 C.3        1 MOL1        -0.2491
      23    H15     18.976260   17.373748   24.355029 H          1 MOL1         0.0959
      24    H16     20.631512   16.776419   24.570017 H          1 MOL1         0.0959
      25    H17     19.448695   16.596914   25.870968 H          1 MOL1         0.0959
      26    N1      19.120615   19.274431   26.445043 N.4        1 MOL1        -0.5987
      27    H18     19.446142   20.120732   26.920801 H          1 MOL1         0.3605
      28    H19     18.740200   18.647000   27.159340 H          1 MOL1         0.3605
      29    H20     18.352364   19.544986   25.826021 H          1 MOL1         0.3605
@<TRIPOS>BOND
    1     1     2    1
    2     1     3    1
    3     1     4    1
    4     1     5    1
    5     5     6    1
    6     5     7    1
    7     5     8    1
    8     8     9    1
    9     8    10    1
   10     8    11    1
   11    11    12    1
   12    11    13    1
   13    11    14    1
   14    14    15    1
   15    14    16    1
   16    14    17    1
   17    17    18    1
   18    17    19    1
   19    17    20    1
   20    20    21    1
   21    20    22    1
   22    22    23    1
   23    22    24    1
   24    22    25    1
   25    20    26    1
   26    26    27    1
   27    26    28    1
   28    26    29    1
@<TRIPOS>SUBSTRUCTURE
       1 MOL1            1 RESIDUE      1      MOL     
@<SCITEGIC>MOL_PROPERTY
VM2 Rank
SciTegic.value.IntegerValue
205

@<SCITEGIC>MOL_PROPERTY
Conf_Id
SciTegic.value.IntegerValue
298

@<SCITEGIC>MOL_PROPERTY
Probability
SciTegic.value.DoubleValue
0.00

@<SCITEGIC>MOL_PROPERTY
Sum Probability
SciTegic.value.DoubleValue
100.00

@<SCITEGIC>MOL_PROPERTY
Delta G
SciTegic.value.DoubleValue
8.209

@<SCITEGIC>MOL_PROPERTY
G
SciTegic.value.DoubleValue
41.911

@<SCITEGIC>MOL_PROPERTY
E
SciTegic.value.DoubleValue
3.541

@<SCITEGIC>MOL_PROPERTY
-TS
SciTegic.value.DoubleValue
38.371

@<SCITEGIC>MOL_PROPERTY
U+W
SciTegic.value.DoubleValue
-20.604

@<SCITEGIC>MOL_PROPERTY
U
SciTegic.value.DoubleValue
32.075

@<SCITEGIC>MOL_PROPERTY
W
SciTegic.value.DoubleValue
-52.679

@<SCITEGIC>MOL_PROPERTY
W(PB)
SciTegic.value.DoubleValue
-55.040

@<SCITEGIC>MOL_PROPERTY
W(SA)
SciTegic.value.DoubleValue
2.361

@<SCITEGIC>MOL_PROPERTY
Valence
SciTegic.value.DoubleValue
10.159

@<SCITEGIC>MOL_PROPERTY
Coulomb
SciTegic.value.DoubleValue
20.991

@<SCITEGIC>MOL_PROPERTY
VdW
SciTegic.value.DoubleValue
0.925

@<SCITEGIC>MOL_PROPERTY
VdW6
SciTegic.value.DoubleValue
-11.915

@<SCITEGIC>MOL_PROPERTY
VdW12
SciTegic.value.DoubleValue
12.840

@<SCITEGIC>MOL_PROPERTY
Bond
SciTegic.value.DoubleValue
0.449

@<SCITEGIC>MOL_PROPERTY
Angle
SciTegic.value.DoubleValue
4.181

@<SCITEGIC>MOL_PROPERTY
Pdih
SciTegic.value.DoubleValue
5.529

@<SCITEGIC>MOL_PROPERTY
Idih
SciTegic.value.DoubleValue
0.000

@<SCITEGIC>MOL_PROPERTY
Tether
SciTegic.value.DoubleValue
0.000

@<TRIPOS>MOLECULE
guest-s15_vm2.mol2 : vm2 ligand conformer 206
          29          28           1
SMALL
USER_CHARGES
 
@<TRIPOS>ATOM
       1    C1      18.484650   20.385105   21.000226 C.3        1 MOL1        -0.2426
       2    H1      17.659730   20.278383   21.716066 H          1 MOL1         0.0959
       3    H2      19.188113   21.132140   21.387458 H          1 MOL1         0.0959
       4    H3      18.064032   20.784819   20.068330 H          1 MOL1         0.0959
       5    C2      19.175687   19.027612   20.736628 C.3        1 MOL1        -0.1410
       6    H4      19.989190   19.159268   20.009458 H          1 MOL1         0.0948
       7    H5      18.450057   18.349706   20.265636 H          1 MOL1         0.0948
       8    C3      19.722060   18.356973   22.018906 C.3        1 MOL1        -0.1435
       9    H6      18.911527   18.257725   22.748886 H          1 MOL1         0.0948
      10    H7      20.026291   17.330421   21.771397 H          1 MOL1         0.0948
      11    C4      20.942439   19.096488   22.625797 C.3        1 MOL1        -0.1435
      12    H8      20.739739   20.164835   22.766806 H          1 MOL1         0.0948
      13    H9      21.760317   19.050710   21.893285 H          1 MOL1         0.0948
      14    C5      21.439490   18.469765   23.955037 C.3        1 MOL1        -0.1435
      15    H10     21.114799   17.424141   24.038160 H          1 MOL1         0.0948
      16    H11     22.536310   18.422620   23.908618 H          1 MOL1         0.0948
      17    C6      21.073005   19.266009   25.241287 C.3        1 MOL1        -0.1500
      18    H12     21.465034   20.287980   25.156365 H          1 MOL1         0.0948
      19    H13     21.617874   18.816627   26.082003 H          1 MOL1         0.0948
      20    C7      19.577677   19.335561   25.638463 C.3        1 MOL1         0.1162
      21    H14     19.528676   19.846239   26.605155 H          1 MOL1         0.0910
      22    C8      18.961904   17.939098   25.835573 C.3        1 MOL1        -0.2491
      23    H15     17.941450   18.021449   26.229238 H          1 MOL1         0.0959
      24    H16     18.915668   17.373139   24.899040 H          1 MOL1         0.0959
      25    H17     19.548998   17.356424   26.556192 H          1 MOL1         0.0959
      26    N1      18.759088   20.179389   24.702082 N.4        1 MOL1        -0.5987
      27    H18     19.089007   21.149044   24.692515 H          1 MOL1         0.3605
      28    H19     17.772115   20.193227   24.975693 H          1 MOL1         0.3605
      29    H20     18.821798   19.822307   23.744113 H          1 MOL1         0.3605
@<TRIPOS>BOND
    1     1     2    1
    2     1     3    1
    3     1     4    1
    4     1     5    1
    5     5     6    1
    6     5     7    1
    7     5     8    1
    8     8     9    1
    9     8    10    1
   10     8    11    1
   11    11    12    1
   12    11    13    1
   13    11    14    1
   14    14    15    1
   15    14    16    1
   16    14    17    1
   17    17    18    1
   18    17    19    1
   19    17    20    1
   20    20    21    1
   21    20    22    1
   22    22    23    1
   23    22    24    1
   24    22    25    1
   25    20    26    1
   26    26    27    1
   27    26    28    1
   28    26    29    1
@<TRIPOS>SUBSTRUCTURE
       1 MOL1            1 RESIDUE      1      MOL     
@<SCITEGIC>MOL_PROPERTY
VM2 Rank
SciTegic.value.IntegerValue
206

@<SCITEGIC>MOL_PROPERTY
Conf_Id
SciTegic.value.IntegerValue
340

@<SCITEGIC>MOL_PROPERTY
Probability
SciTegic.value.DoubleValue
0.00

@<SCITEGIC>MOL_PROPERTY
Sum Probability
SciTegic.value.DoubleValue
100.00

@<SCITEGIC>MOL_PROPERTY
Delta G
SciTegic.value.DoubleValue
9.295

@<SCITEGIC>MOL_PROPERTY
G
SciTegic.value.DoubleValue
42.997

@<SCITEGIC>MOL_PROPERTY
E
SciTegic.value.DoubleValue
4.105

@<SCITEGIC>MOL_PROPERTY
-TS
SciTegic.value.DoubleValue
38.892

@<SCITEGIC>MOL_PROPERTY
U+W
SciTegic.value.DoubleValue
-20.040

@<SCITEGIC>MOL_PROPERTY
U
SciTegic.value.DoubleValue
30.903

@<SCITEGIC>MOL_PROPERTY
W
SciTegic.value.DoubleValue
-50.943

@<SCITEGIC>MOL_PROPERTY
W(PB)
SciTegic.value.DoubleValue
-53.280

@<SCITEGIC>MOL_PROPERTY
W(SA)
SciTegic.value.DoubleValue
2.337

@<SCITEGIC>MOL_PROPERTY
Valence
SciTegic.value.DoubleValue
8.630

@<SCITEGIC>MOL_PROPERTY
Coulomb
SciTegic.value.DoubleValue
21.734

@<SCITEGIC>MOL_PROPERTY
VdW
SciTegic.value.DoubleValue
0.539

@<SCITEGIC>MOL_PROPERTY
VdW6
SciTegic.value.DoubleValue
-12.781

@<SCITEGIC>MOL_PROPERTY
VdW12
SciTegic.value.DoubleValue
13.320

@<SCITEGIC>MOL_PROPERTY
Bond
SciTegic.value.DoubleValue
0.379

@<SCITEGIC>MOL_PROPERTY
Angle
SciTegic.value.DoubleValue
2.934

@<SCITEGIC>MOL_PROPERTY
Pdih
SciTegic.value.DoubleValue
5.317

@<SCITEGIC>MOL_PROPERTY
Idih
SciTegic.value.DoubleValue
0.000

@<SCITEGIC>MOL_PROPERTY
Tether
SciTegic.value.DoubleValue
0.000

@<TRIPOS>MOLECULE
guest-s15_vm2.mol2 : vm2 ligand conformer 207
          29          28           1
SMALL
USER_CHARGES
 
@<TRIPOS>ATOM
       1    C1      18.350147   20.333907   21.164280 C.3        1 MOL1        -0.2426
       2    H1      18.045773   19.871550   20.216271 H          1 MOL1         0.0959
       3    H2      17.745496   19.891245   21.963342 H          1 MOL1         0.0959
       4    H3      18.098508   21.400993   21.108997 H          1 MOL1         0.0959
       5    C2      19.866257   20.147312   21.404463 C.3        1 MOL1        -0.1410
       6    H4      20.169675   20.658092   22.323660 H          1 MOL1         0.0948
       7    H5      20.406802   20.654209   20.592894 H          1 MOL1         0.0948
       8    C3      20.306175   18.662029   21.426919 C.3        1 MOL1        -0.1435
       9    H6      19.949354   18.191182   20.500443 H          1 MOL1         0.0948
      10    H7      21.402203   18.607212   21.376804 H          1 MOL1         0.0948
      11    C4      19.802035   17.820980   22.632686 C.3        1 MOL1        -0.1435
      12    H8      19.661322   16.793374   22.269875 H          1 MOL1         0.0948
      13    H9      18.807027   18.135358   22.960754 H          1 MOL1         0.0948
      14    C5      20.791508   17.735332   23.826428 C.3        1 MOL1        -0.1435
      15    H10     20.455805   16.942450   24.507084 H          1 MOL1         0.0948
      16    H11     21.757430   17.380735   23.441395 H          1 MOL1         0.0948
      17    C6      21.047423   19.037439   24.638860 C.3        1 MOL1        -0.1500
      18    H12     21.418629   19.827520   23.976868 H          1 MOL1         0.0948
      19    H13     21.881416   18.833861   25.323328 H          1 MOL1         0.0948
      20    C7      19.879529   19.581077   25.503070 C.3        1 MOL1         0.1162
      21    H14     20.292555   20.382947   26.122801 H          1 MOL1         0.0910
      22    C8      19.309557   18.515894   26.455560 C.3        1 MOL1        -0.2491
      23    H15     18.772997   17.730880   25.909270 H          1 MOL1         0.0959
      24    H16     20.110655   18.045586   27.039178 H          1 MOL1         0.0959
      25    H17     18.605952   18.971284   27.163160 H          1 MOL1         0.0959
      26    N1      18.783369   20.222030   24.701733 N.4        1 MOL1        -0.5987
      27    H18     19.138221   20.997099   24.134901 H          1 MOL1         0.3605
      28    H19     18.047124   20.594753   25.308511 H          1 MOL1         0.3605
      29    H20     18.353684   19.545660   24.067318 H          1 MOL1         0.3605
@<TRIPOS>BOND
    1     1     2    1
    2     1     3    1
    3     1     4    1
    4     1     5    1
    5     5     6    1
    6     5     7    1
    7     5     8    1
    8     8     9    1
    9     8    10    1
   10     8    11    1
   11    11    12    1
   12    11    13    1
   13    11    14    1
   14    14    15    1
   15    14    16    1
   16    14    17    1
   17    17    18    1
   18    17    19    1
   19    17    20    1
   20    20    21    1
   21    20    22    1
   22    22    23    1
   23    22    24    1
   24    22    25    1
   25    20    26    1
   26    26    27    1
   27    26    28    1
   28    26    29    1
@<TRIPOS>SUBSTRUCTURE
       1 MOL1            1 RESIDUE      1      MOL     
@<SCITEGIC>MOL_PROPERTY
VM2 Rank
SciTegic.value.IntegerValue
207

@<SCITEGIC>MOL_PROPERTY
Conf_Id
SciTegic.value.IntegerValue
339

@<SCITEGIC>MOL_PROPERTY
Probability
SciTegic.value.DoubleValue
0.00

@<SCITEGIC>MOL_PROPERTY
Sum Probability
SciTegic.value.DoubleValue
100.00

@<SCITEGIC>MOL_PROPERTY
Delta G
SciTegic.value.DoubleValue
9.867

@<SCITEGIC>MOL_PROPERTY
G
SciTegic.value.DoubleValue
43.569

@<SCITEGIC>MOL_PROPERTY
E
SciTegic.value.DoubleValue
4.974

@<SCITEGIC>MOL_PROPERTY
-TS
SciTegic.value.DoubleValue
38.595

@<SCITEGIC>MOL_PROPERTY
U+W
SciTegic.value.DoubleValue
-19.171

@<SCITEGIC>MOL_PROPERTY
U
SciTegic.value.DoubleValue
32.384

@<SCITEGIC>MOL_PROPERTY
W
SciTegic.value.DoubleValue
-51.554

@<SCITEGIC>MOL_PROPERTY
W(PB)
SciTegic.value.DoubleValue
-53.873

@<SCITEGIC>MOL_PROPERTY
W(SA)
SciTegic.value.DoubleValue
2.319

@<SCITEGIC>MOL_PROPERTY
Valence
SciTegic.value.DoubleValue
9.558

@<SCITEGIC>MOL_PROPERTY
Coulomb
SciTegic.value.DoubleValue
22.443

@<SCITEGIC>MOL_PROPERTY
VdW
SciTegic.value.DoubleValue
0.382

@<SCITEGIC>MOL_PROPERTY
VdW6
SciTegic.value.DoubleValue
-13.100

@<SCITEGIC>MOL_PROPERTY
VdW12
SciTegic.value.DoubleValue
13.482

@<SCITEGIC>MOL_PROPERTY
Bond
SciTegic.value.DoubleValue
0.478

@<SCITEGIC>MOL_PROPERTY
Angle
SciTegic.value.DoubleValue
4.244

@<SCITEGIC>MOL_PROPERTY
Pdih
SciTegic.value.DoubleValue
4.836

@<SCITEGIC>MOL_PROPERTY
Idih
SciTegic.value.DoubleValue
0.000

@<SCITEGIC>MOL_PROPERTY
Tether
SciTegic.value.DoubleValue
0.000

