@<TRIPOS>MOLECULE
CD_guest-s18_fast_vm2_rndm.mol2 : feprocess host+ligand conformer 1
         142         147           2
SMALL
USER_CHARGES
 
@<TRIPOS>ATOM
       1    C1      16.426838   15.522194   22.263769 C.3        1 MOL1         0.2972
       2    H1      15.378671   15.514009   22.586814 H          1 MOL1         0.0751
       3    O1      16.763792   16.750709   21.584611 O.3        1 MOL1        -0.3740
       4    C2      17.359500   15.354798   23.490024 C.3        1 MOL1         0.1003
       5    H2      17.159095   14.365918   23.921813 H          1 MOL1         0.0783
       6    O2      17.074617   16.357865   24.479388 O.3        1 MOL1        -0.5519
       7    H3      17.921727   16.823226   24.699243 H          1 MOL1         0.3769
       8    C3      18.840890   15.383568   23.039772 C.3        1 MOL1         0.1053
       9    H4      19.040278   16.365055   22.605234 H          1 MOL1         0.0783
      10    O3      19.709178   15.168973   24.159238 O.3        1 MOL1        -0.5519
      11    H5      19.734623   16.031821   24.652680 H          1 MOL1         0.3769
      12    C4      19.118262   14.341102   21.927394 C.3        1 MOL1         0.1018
      13    H6      19.178362   13.342272   22.379429 H          1 MOL1         0.0783
      14    C5      18.035399   14.367721   20.808783 C.3        1 MOL1         0.1043
      15    H7      18.205377   15.270916   20.211220 H          1 MOL1         0.0783
      16    O4      16.694278   14.423283   21.364034 O.3        1 MOL1        -0.3740
      17    C6      18.120816   13.161487   19.843779 C.3        1 MOL1         0.0138
      18    H8      19.031145   13.265020   19.237711 H          1 MOL1         0.0794
      19    H9      17.265112   13.200000   19.156433 H          1 MOL1         0.0794
      20    O5      18.143096   11.911144   20.543683 O.3        1 MOL1        -0.5486
      21    H10     18.124343   11.193847   19.873031 H          1 MOL1         0.3769
      22    C7      15.008479   20.244232   20.180986 C.3        1 MOL1         0.2972
      23    H11     14.396000   20.998761   19.670682 H          1 MOL1         0.0751
      24    O6      16.185689   20.827573   20.774939 O.3        1 MOL1        -0.3740
      25    C8      14.201642   19.542107   21.301655 C.3        1 MOL1         0.1003
      26    H12     13.332426   19.071547   20.823993 H          1 MOL1         0.0783
      27    O7      13.740215   20.489940   22.278371 O.3        1 MOL1        -0.5519
      28    H13     14.518936   21.039459   22.549756 H          1 MOL1         0.3769
      29    C9      15.029166   18.419932   21.982744 C.3        1 MOL1         0.1053
      30    H14     15.830121   18.889708   22.570690 H          1 MOL1         0.0783
      31    O8      14.153527   17.685595   22.844107 O.3        1 MOL1        -0.5519
      32    H15     13.702112   18.363852   23.392637 H          1 MOL1         0.3769
      33    C10     15.688961   17.467678   20.943930 C.3        1 MOL1         0.1018
      34    H16     14.926139   16.782968   20.552361 H          1 MOL1         0.0783
      35    C11     16.343315   18.242748   19.766901 C.3        1 MOL1         0.1043
      36    H17     17.226610   18.760118   20.156498 H          1 MOL1         0.0783
      37    O9      15.419682   19.225829   19.244570 O.3        1 MOL1        -0.3740
      38    C12     16.829360   17.343340   18.601469 C.3        1 MOL1         0.0138
      39    H18     17.825070   16.957577   18.852620 H          1 MOL1         0.0794
      40    H19     16.949516   17.966651   17.705468 H          1 MOL1         0.0794
      41    O10     15.944162   16.249695   18.327508 O.3        1 MOL1        -0.5486
      42    H20     15.959045   15.658157   19.111448 H          1 MOL1         0.3769
      43    C13     18.383253   24.269911   21.156828 C.3        1 MOL1         0.2972
      44    H21     18.818188   25.277069   21.190028 H          1 MOL1         0.0751
      45    O11     19.405750   23.249831   21.246173 O.3        1 MOL1        -0.3740
      46    C14     17.324131   24.075728   22.273572 C.3        1 MOL1         0.1003
      47    H22     16.488199   24.748707   22.041694 H          1 MOL1         0.0783
      48    O12     17.829712   24.415220   23.572127 O.3        1 MOL1        -0.5519
      49    H23     18.553274   23.770820   23.775045 H          1 MOL1         0.3769
      50    C15     16.783041   22.626054   22.238132 C.3        1 MOL1         0.1053
      51    H24     17.609055   21.942593   22.475306 H          1 MOL1         0.0783
      52    O13     15.739838   22.478328   23.207500 O.3        1 MOL1        -0.5519
      53    H25     16.084285   22.907812   24.021970 H          1 MOL1         0.3769
      54    C16     16.241218   22.267216   20.830336 C.3        1 MOL1         0.1018
      55    H26     15.245099   22.717464   20.727241 H          1 MOL1         0.0783
      56    C17     17.164305   22.745698   19.667128 C.3        1 MOL1         0.1043
      57    H27     18.016241   22.060970   19.600125 H          1 MOL1         0.0783
      58    O14     17.673265   24.082452   19.913631 O.3        1 MOL1        -0.3740
      59    C18     16.470037   22.730519   18.284369 C.3        1 MOL1         0.0138
      60    H28     16.322932   21.685216   17.980524 H          1 MOL1         0.0794
      61    H29     17.144126   23.190993   17.549755 H          1 MOL1         0.0794
      62    O15     15.210333   23.414181   18.302277 O.3        1 MOL1        -0.5486
      63    H30     14.865379   23.426458   17.382750 H          1 MOL1         0.3769
      64    C19     23.271619   22.398501   22.488132 C.3        1 MOL1         0.2972
      65    H31     24.280783   22.411265   22.915190 H          1 MOL1         0.0751
      66    O16     23.070936   21.266986   21.613743 O.3        1 MOL1        -0.3740
      67    C20     22.212806   22.342382   23.619506 C.3        1 MOL1         0.1003
      68    H32     22.337765   23.245455   24.230470 H          1 MOL1         0.0783
      69    O17     22.432001   21.186193   24.446473 O.3        1 MOL1        -0.5519
      70    H33     21.555194   20.833160   24.743361 H          1 MOL1         0.3769
      71    C21     20.779558   22.367709   23.029267 C.3        1 MOL1         0.1053
      72    H34     20.629332   21.439975   22.468098 H          1 MOL1         0.0783
      73    O18     19.822078   22.470073   24.091144 O.3        1 MOL1        -0.5519
      74    H35     19.807735   21.591129   24.553620 H          1 MOL1         0.3769
      75    C22     20.581775   23.543672   22.035365 C.3        1 MOL1         0.1018
      76    H36     20.470872   24.474557   22.606924 H          1 MOL1         0.0783
      77    C23     21.763906   23.676228   21.033935 C.3        1 MOL1         0.1043
      78    H37     21.698016   22.843920   20.321581 H          1 MOL1         0.0783
      79    O19     23.035731   23.603633   21.727320 O.3        1 MOL1        -0.3740
      80    C24     21.725605   24.986180   20.210894 C.3        1 MOL1         0.0138
      81    H38     20.886806   24.927276   19.504055 H          1 MOL1         0.0794
      82    H39     22.647685   25.054636   19.618326 H          1 MOL1         0.0794
      83    O20     21.579131   26.145082   21.041690 O.3        1 MOL1        -0.5486
      84    H40     21.635763   26.935968   20.462150 H          1 MOL1         0.3769
      85    C25     24.948222   17.680123   20.676586 C.3        1 MOL1         0.2972
      86    H41     25.619387   16.898247   20.298796 H          1 MOL1         0.0751
      87    O21     23.697417   17.130718   21.139904 O.3        1 MOL1        -0.3740
      88    C26     25.604171   18.428857   21.860780 C.3        1 MOL1         0.1003
      89    H42     26.543248   18.857912   21.487677 H          1 MOL1         0.0783
      90    O22     25.900743   17.522092   22.936105 O.3        1 MOL1        -0.5519
      91    H43     25.120068   16.921042   23.039860 H          1 MOL1         0.3769
      92    C27     24.720717   19.601225   22.363558 C.3        1 MOL1         0.1053
      93    H44     23.837468   19.180914   22.864941 H          1 MOL1         0.0783
      94    O23     25.503837   20.357466   23.293040 O.3        1 MOL1        -0.5519
      95    H45     25.830533   19.701141   23.946496 H          1 MOL1         0.3769
      96    C28     24.228805   20.510298   21.196958 C.3        1 MOL1         0.1018
      97    H46     25.045840   21.174314   20.888926 H          1 MOL1         0.0783
      98    C29     23.739537   19.685553   19.975095 C.3        1 MOL1         0.1043
      99    H47     22.790109   19.216532   20.251837 H          1 MOL1         0.0783
     100    O24     24.690295   18.649215   19.640445 O.3        1 MOL1        -0.3740
     101    C30     23.469644   20.538964   18.711074 C.3        1 MOL1         0.0138
     102    H48     22.555496   21.124671   18.872929 H          1 MOL1         0.0794
     103    H49     23.272779   19.861475   17.869773 H          1 MOL1         0.0794
     104    O25     24.556030   21.417547   18.392421 O.3        1 MOL1        -0.5486
     105    H50     24.574583   22.121756   19.075118 H          1 MOL1         0.3769
     106    C31     21.370478   13.718477   21.120843 C.3        1 MOL1         0.2972
     107    H51     20.928034   12.717719   21.034522 H          1 MOL1         0.0751
     108    O26     20.357002   14.732214   21.296421 O.3        1 MOL1        -0.3740
     109    C32     22.393472   13.785866   22.285738 C.3        1 MOL1         0.1003
     110    H52     23.218696   13.109568   22.027054 H          1 MOL1         0.0783
     111    O27     21.823809   13.355163   23.530063 O.3        1 MOL1        -0.5519
     112    H53     21.081011   13.976125   23.738931 H          1 MOL1         0.3769
     113    C33     22.976110   15.215978   22.403720 C.3        1 MOL1         0.1053
     114    H54     22.164274   15.893342   22.695605 H          1 MOL1         0.0783
     115    O28     24.002453   15.235905   23.401548 O.3        1 MOL1        -0.5519
     116    H55     23.627358   14.743406   24.165166 H          1 MOL1         0.3769
     117    C34     23.557851   15.696789   21.049229 C.3        1 MOL1         0.1018
     118    H56     24.526318   15.199709   20.906842 H          1 MOL1         0.0783
     119    C35     22.629115   15.387677   19.838468 C.3        1 MOL1         0.1043
     120    H57     21.788558   16.089682   19.865286 H          1 MOL1         0.0783
     121    O29     22.106682   14.036475   19.920738 O.3        1 MOL1        -0.3740
     122    C36     23.326057   15.561117   18.467786 C.3        1 MOL1         0.0138
     123    H58     23.496805   16.632440   18.296925 H          1 MOL1         0.0794
     124    H59     22.643807   15.211221   17.681604 H          1 MOL1         0.0794
     125    O30     24.570659   14.852993   18.399281 O.3        1 MOL1        -0.5486
     126    H60     24.929101   14.969396   17.492454 H          1 MOL1         0.3769
     127    C1      19.587636   18.904801   24.529754 C.2        1 MOL1         0.6075
     128    O1      20.008434   19.890849   25.106043 O.co2      1 MOL1        -0.6830
     129    O2      19.423146   17.816472   25.050889 O.co2      1 MOL1        -0.6830
     130    C2      19.276037   19.032027   23.044832 C.3        1 MOL1        -0.2050
     131    H1      18.974382   20.062713   22.842766 H          1 MOL1         0.0710
     132    H2      18.396257   18.418586   22.831757 H          1 MOL1         0.0710
     133    C3      20.472818   18.613101   22.147976 C.3        1 MOL1        -0.1947
     134    H3      21.307819   19.310173   22.287833 H          1 MOL1         0.0712
     135    H4      20.844471   17.638965   22.483633 H          1 MOL1         0.0712
     136    C4      20.105256   18.512664   20.652632 C.3        1 MOL1        -0.1921
     137    H5      19.268786   17.814271   20.531596 H          1 MOL1         0.0712
     138    H6      20.944931   18.079710   20.099815 H          1 MOL1         0.0712
     139    C5      19.756409   19.879980   20.035413 C.3        1 MOL1        -0.2936
     140    H7      18.891740   20.319996   20.542102 H          1 MOL1         0.0724
     141    H8      19.514147   19.778199   18.970277 H          1 MOL1         0.0724
     142    H9      20.594521   20.579943   20.133250 H          1 MOL1         0.0724
@<TRIPOS>BOND
    1     1     2    1
    2     1     3    1
    3     1     4    1
    4     4     5    1
    5     4     6    1
    6     6     7    1
    7     4     8    1
    8     8     9    1
    9     8    10    1
   10    10    11    1
   11     8    12    1
   12    12    13    1
   13    12    14    1
   14    14    15    1
   15     1    16    1
   16    14    16    1
   17    14    17    1
   18    17    18    1
   19    17    19    1
   20    17    20    1
   21    20    21    1
   22    22    23    1
   23    22    24    1
   24    22    25    1
   25    25    26    1
   26    25    27    1
   27    27    28    1
   28    25    29    1
   29    29    30    1
   30    29    31    1
   31    31    32    1
   32     3    33    1
   33    29    33    1
   34    33    34    1
   35    33    35    1
   36    35    36    1
   37    22    37    1
   38    35    37    1
   39    35    38    1
   40    38    39    1
   41    38    40    1
   42    38    41    1
   43    41    42    1
   44    43    44    1
   45    43    45    1
   46    43    46    1
   47    46    47    1
   48    46    48    1
   49    48    49    1
   50    46    50    1
   51    50    51    1
   52    50    52    1
   53    52    53    1
   54    24    54    1
   55    50    54    1
   56    54    55    1
   57    54    56    1
   58    56    57    1
   59    43    58    1
   60    56    58    1
   61    56    59    1
   62    59    60    1
   63    59    61    1
   64    59    62    1
   65    62    63    1
   66    64    65    1
   67    64    66    1
   68    64    67    1
   69    67    68    1
   70    67    69    1
   71    69    70    1
   72    67    71    1
   73    71    72    1
   74    71    73    1
   75    73    74    1
   76    45    75    1
   77    71    75    1
   78    75    76    1
   79    75    77    1
   80    77    78    1
   81    64    79    1
   82    77    79    1
   83    77    80    1
   84    80    81    1
   85    80    82    1
   86    80    83    1
   87    83    84    1
   88    85    86    1
   89    85    87    1
   90    85    88    1
   91    88    89    1
   92    88    90    1
   93    90    91    1
   94    88    92    1
   95    92    93    1
   96    92    94    1
   97    94    95    1
   98    66    96    1
   99    92    96    1
  100    96    97    1
  101    96    98    1
  102    98    99    1
  103    85   100    1
  104    98   100    1
  105    98   101    1
  106   101   102    1
  107   101   103    1
  108   101   104    1
  109   104   105    1
  110   106   107    1
  111    12   108    1
  112   106   108    1
  113   106   109    1
  114   109   110    1
  115   109   111    1
  116   111   112    1
  117   109   113    1
  118   113   114    1
  119   113   115    1
  120   115   116    1
  121    87   117    1
  122   113   117    1
  123   117   118    1
  124   117   119    1
  125   119   120    1
  126   106   121    1
  127   119   121    1
  128   119   122    1
  129   122   123    1
  130   122   124    1
  131   122   125    1
  132   125   126    1
  133   127   128    1
  134   127   129    2
  135   127   130    1
  136   130   131    1
  137   130   132    1
  138   130   133    1
  139   133   134    1
  140   133   135    1
  141   133   136    1
  142   136   137    1
  143   136   138    1
  144   136   139    1
  145   139   140    1
  146   139   141    1
  147   139   142    1
@<TRIPOS>SUBSTRUCTURE
       1 MOL1            1 RESIDUE      1      MOL     
       2 MOL1          142 RESIDUE      1      MOL     
@<SCITEGIC>MOL_PROPERTY
feprocess Rank
SciTegic.value.IntegerValue
1

@<SCITEGIC>MOL_PROPERTY
Conf_Id
SciTegic.value.IntegerValue
964

@<SCITEGIC>MOL_PROPERTY
Probability
SciTegic.value.DoubleValue
25.60

@<SCITEGIC>MOL_PROPERTY
G
SciTegic.value.DoubleValue
489.584

@<SCITEGIC>MOL_PROPERTY
E
SciTegic.value.DoubleValue
304.851

@<SCITEGIC>MOL_PROPERTY
-TS
SciTegic.value.DoubleValue
184.732

@<SCITEGIC>MOL_PROPERTY
U+W
SciTegic.value.DoubleValue
179.657

@<SCITEGIC>MOL_PROPERTY
U
SciTegic.value.DoubleValue
253.842

@<SCITEGIC>MOL_PROPERTY
W
SciTegic.value.DoubleValue
-74.185

@<SCITEGIC>MOL_PROPERTY
W(PB)
SciTegic.value.DoubleValue
-80.201

@<SCITEGIC>MOL_PROPERTY
W(SA)
SciTegic.value.DoubleValue
6.016

@<SCITEGIC>MOL_PROPERTY
Valence
SciTegic.value.DoubleValue
150.314

@<SCITEGIC>MOL_PROPERTY
Coulomb
SciTegic.value.DoubleValue
124.779

@<SCITEGIC>MOL_PROPERTY
VdW
SciTegic.value.DoubleValue
-21.250

@<SCITEGIC>MOL_PROPERTY
VdW6
SciTegic.value.DoubleValue
-183.394

@<SCITEGIC>MOL_PROPERTY
VdW12
SciTegic.value.DoubleValue
162.144

@<SCITEGIC>MOL_PROPERTY
Bond
SciTegic.value.DoubleValue
5.436

@<SCITEGIC>MOL_PROPERTY
Angle
SciTegic.value.DoubleValue
15.094

@<SCITEGIC>MOL_PROPERTY
Pdih
SciTegic.value.DoubleValue
129.782

@<SCITEGIC>MOL_PROPERTY
Idih
SciTegic.value.DoubleValue
0.001

@<SCITEGIC>MOL_PROPERTY
Tether
SciTegic.value.DoubleValue
0.000

@<TRIPOS>MOLECULE
CD_guest-s18_fast_vm2_rndm.mol2 : feprocess host+ligand conformer 2
         142         147           2
SMALL
USER_CHARGES
 
@<TRIPOS>ATOM
       1    C1      16.257904   15.340811   20.485582 C.3        1 MOL1         0.2972
       2    H1      15.252958   15.118601   20.104543 H          1 MOL1         0.0751
       3    O1      16.383155   16.726772   20.860078 O.3        1 MOL1        -0.3740
       4    C2      16.620068   14.432327   21.695307 C.3        1 MOL1         0.1003
       5    H2      16.619670   13.398781   21.325217 H          1 MOL1         0.0783
       6    O2      15.662424   14.529890   22.759396 O.3        1 MOL1        -0.5519
       7    H3      15.691864   15.461446   23.094151 H          1 MOL1         0.3769
       8    C3      18.050585   14.746355   22.203160 C.3        1 MOL1         0.1053
       9    H4      18.070787   15.776982   22.586056 H          1 MOL1         0.0783
      10    O3      18.400291   13.830289   23.246099 O.3        1 MOL1        -0.5519
      11    H5      17.604620   13.781271   23.821946 H          1 MOL1         0.3769
      12    C4      19.058321   14.635002   21.031003 C.3        1 MOL1         0.1018
      13    H6      19.135521   13.581448   20.731297 H          1 MOL1         0.0783
      14    C5      18.607146   15.468780   19.803275 C.3        1 MOL1         0.1043
      15    H7      18.634768   16.530464   20.076414 H          1 MOL1         0.0783
      16    O4      17.247864   15.093111   19.457755 O.3        1 MOL1        -0.3740
      17    C6      19.519965   15.309269   18.559746 C.3        1 MOL1         0.0138
      18    H8      20.327333   16.049877   18.631121 H          1 MOL1         0.0794
      19    H9      18.938653   15.558546   17.662175 H          1 MOL1         0.0794
      20    O5      20.085225   13.997113   18.437199 O.3        1 MOL1        -0.5486
      21    H10     20.715558   13.880746   19.184446 H          1 MOL1         0.3769
      22    C7      14.703836   20.279782   21.803306 C.3        1 MOL1         0.2972
      23    H11     14.121108   21.170731   22.069469 H          1 MOL1         0.0751
      24    O6      15.998798   20.624773   21.269777 O.3        1 MOL1        -0.3740
      25    C8      14.896912   19.375728   23.043778 C.3        1 MOL1         0.1003
      26    H12     13.901046   19.033888   23.353446 H          1 MOL1         0.0783
      27    O7      15.494692   20.115937   24.124858 O.3        1 MOL1        -0.5519
      28    H13     16.483767   19.995906   24.083703 H          1 MOL1         0.3769
      29    C9      15.735567   18.130693   22.670959 C.3        1 MOL1         0.1053
      30    H14     16.749169   18.482587   22.460822 H          1 MOL1         0.0783
      31    O8      15.770515   17.208820   23.765372 O.3        1 MOL1        -0.5519
      32    H15     16.497181   17.539388   24.361033 H          1 MOL1         0.3769
      33    C10     15.229114   17.408816   21.392742 C.3        1 MOL1         0.1018
      34    H16     14.424640   16.714961   21.669232 H          1 MOL1         0.0783
      35    C11     14.749105   18.374696   20.268778 C.3        1 MOL1         0.1043
      36    H17     15.641755   18.758151   19.758174 H          1 MOL1         0.0783
      37    O9      14.008325   19.497331   20.811619 O.3        1 MOL1        -0.3740
      38    C12     13.881031   17.683500   19.190686 C.3        1 MOL1         0.0138
      39    H18     14.522120   17.007823   18.608612 H          1 MOL1         0.0794
      40    H19     13.504247   18.450276   18.500545 H          1 MOL1         0.0794
      41    O10     12.791358   16.948411   19.761329 O.3        1 MOL1        -0.5486
      42    H20     12.245415   16.602045   19.021870 H          1 MOL1         0.3769
      43    C13     18.480753   23.889229   20.666599 C.3        1 MOL1         0.2972
      44    H21     18.929537   24.852114   20.392285 H          1 MOL1         0.0751
      45    O11     19.495986   22.910346   20.978870 O.3        1 MOL1        -0.3740
      46    C14     17.494127   24.054950   21.857320 C.3        1 MOL1         0.1003
      47    H22     16.700131   24.733486   21.520322 H          1 MOL1         0.0783
      48    O12     18.141083   24.641065   22.997804 O.3        1 MOL1        -0.5519
      49    H23     18.718340   23.937164   23.384991 H          1 MOL1         0.3769
      50    C15     16.829848   22.699588   22.218283 C.3        1 MOL1         0.1053
      51    H24     17.607735   22.042019   22.624502 H          1 MOL1         0.0783
      52    O13     15.797617   22.901801   23.192241 O.3        1 MOL1        -0.5519
      53    H25     15.681876   22.037615   23.654952 H          1 MOL1         0.3769
      54    C16     16.228417   22.011717   20.962288 C.3        1 MOL1         0.1018
      55    H26     15.297721   22.523516   20.686359 H          1 MOL1         0.0783
      56    C17     17.195624   22.028795   19.747774 C.3        1 MOL1         0.1043
      57    H27     18.023810   21.341443   19.961331 H          1 MOL1         0.0783
      58    O14     17.717169   23.367423   19.557361 O.3        1 MOL1        -0.3740
      59    C18     16.554872   21.543860   18.423179 C.3        1 MOL1         0.0138
      60    H28     16.506474   20.447354   18.442704 H          1 MOL1         0.0794
      61    H29     17.219499   21.820165   17.593908 H          1 MOL1         0.0794
      62    O15     15.243957   22.079801   18.204623 O.3        1 MOL1        -0.5486
      63    H30     14.635235   21.624318   18.825904 H          1 MOL1         0.3769
      64    C19     23.423928   22.441722   22.209563 C.3        1 MOL1         0.2972
      65    H31     24.433913   22.572235   22.618399 H          1 MOL1         0.0751
      66    O16     23.317525   21.223529   21.446906 O.3        1 MOL1        -0.3740
      67    C20     22.379369   22.418774   23.359013 C.3        1 MOL1         0.1003
      68    H32     22.471866   23.369892   23.898653 H          1 MOL1         0.0783
      69    O17     22.650824   21.335610   24.265229 O.3        1 MOL1        -0.5519
      70    H33     23.580574   21.047084   24.107281 H          1 MOL1         0.3769
      71    C21     20.933826   22.324632   22.804850 C.3        1 MOL1         0.1053
      72    H34     20.810931   21.322744   22.378088 H          1 MOL1         0.0783
      73    O18     19.977514   22.535553   23.855209 O.3        1 MOL1        -0.5519
      74    H35     19.523391   21.664556   24.017444 H          1 MOL1         0.3769
      75    C22     20.675201   23.359013   21.677809 C.3        1 MOL1         0.1018
      76    H36     20.536173   24.347830   22.132847 H          1 MOL1         0.0783
      77    C23     21.829592   23.426355   20.641116 C.3        1 MOL1         0.1043
      78    H37     21.810060   22.501428   20.049544 H          1 MOL1         0.0783
      79    O19     23.101688   23.534847   21.326399 O.3        1 MOL1        -0.3740
      80    C24     21.708807   24.606306   19.646803 C.3        1 MOL1         0.0138
      81    H38     20.879315   24.396933   18.958000 H          1 MOL1         0.0794
      82    H39     22.626871   24.651528   19.045790 H          1 MOL1         0.0794
      83    O20     21.485929   25.857043   20.310362 O.3        1 MOL1        -0.5486
      84    H40     21.505131   26.563811   19.628795 H          1 MOL1         0.3769
      85    C25     25.243712   17.653421   20.848815 C.3        1 MOL1         0.2972
      86    H41     25.884163   16.796391   20.603759 H          1 MOL1         0.0751
      87    O21     23.872748   17.252816   21.066061 O.3        1 MOL1        -0.3740
      88    C26     25.768263   18.423032   22.087838 C.3        1 MOL1         0.1003
      89    H42     26.727982   18.873702   21.802636 H          1 MOL1         0.0783
      90    O22     25.988158   17.560328   23.212155 O.3        1 MOL1        -0.5519
      91    H43     25.108174   17.180051   23.459839 H          1 MOL1         0.3769
      92    C27     24.794490   19.572572   22.445740 C.3        1 MOL1         0.1053
      93    H44     23.835919   19.129296   22.750976 H          1 MOL1         0.0783
      94    O23     25.343982   20.328599   23.530971 O.3        1 MOL1        -0.5519
      95    H45     25.741381   19.657857   24.131883 H          1 MOL1         0.3769
      96    C28     24.535912   20.490042   21.216089 C.3        1 MOL1         0.1018
      97    H46     25.390851   21.165988   21.090506 H          1 MOL1         0.0783
      98    C29     24.311324   19.701278   19.890845 C.3        1 MOL1         0.1043
      99    H47     23.299506   19.282750   19.908418 H          1 MOL1         0.0783
     100    O24     25.255760   18.607960   19.766222 O.3        1 MOL1        -0.3740
     101    C30     24.392204   20.584168   18.621622 C.3        1 MOL1         0.0138
     102    H48     23.510917   21.239319   18.596177 H          1 MOL1         0.0794
     103    H49     24.334378   19.930634   17.741162 H          1 MOL1         0.0794
     104    O25     25.586796   21.374249   18.568788 O.3        1 MOL1        -0.5486
     105    H50     25.480362   22.114924   19.203350 H          1 MOL1         0.3769
     106    C31     21.274380   14.171217   21.921788 C.3        1 MOL1         0.2972
     107    H51     20.781672   13.225241   22.181727 H          1 MOL1         0.0751
     108    O26     20.327556   15.153653   21.461965 O.3        1 MOL1        -0.3740
     109    C32     22.001260   14.743406   23.159359 C.3        1 MOL1         0.1003
     110    H52     22.769509   14.017020   23.454816 H          1 MOL1         0.0783
     111    O27     21.084212   14.930282   24.249494 O.3        1 MOL1        -0.5519
     112    H53     20.174234   14.807177   23.884530 H          1 MOL1         0.3769
     113    C33     22.707682   16.072691   22.810355 C.3        1 MOL1         0.1053
     114    H54     21.939299   16.819088   22.576740 H          1 MOL1         0.0783
     115    O28     23.456300   16.498907   23.950947 O.3        1 MOL1        -0.5519
     116    H55     22.833490   16.394547   24.705721 H          1 MOL1         0.3769
     117    C34     23.623245   15.924254   21.565737 C.3        1 MOL1         0.1018
     118    H56     24.548319   15.410573   21.858970 H          1 MOL1         0.0783
     119    C35     22.926806   15.159534   20.402159 C.3        1 MOL1         0.1043
     120    H57     22.181193   15.833455   19.962309 H          1 MOL1         0.0783
     121    O29     22.252716   13.966753   20.880971 O.3        1 MOL1        -0.3740
     122    C36     23.897930   14.754952   19.267839 C.3        1 MOL1         0.0138
     123    H58     24.219765   15.665813   18.744823 H          1 MOL1         0.0794
     124    H59     23.352478   14.137066   18.541876 H          1 MOL1         0.0794
     125    O30     25.042709   14.049715   19.763835 O.3        1 MOL1        -0.5486
     126    H60     25.575590   13.764898   18.989568 H          1 MOL1         0.3769
     127    C1      18.709899   19.065378   24.118621 C.2        1 MOL1         0.6075
     128    O1      18.347738   20.226346   24.126651 O.co2      1 MOL1        -0.6830
     129    O2      18.155614   18.197722   24.763776 O.co2      1 MOL1        -0.6830
     130    C2      19.765845   18.644997   23.101630 C.3        1 MOL1        -0.2050
     131    H1      19.905671   17.561412   23.184859 H          1 MOL1         0.0710
     132    H2      20.708946   19.117743   23.399892 H          1 MOL1         0.0710
     133    C3      19.412172   19.018777   21.637158 C.3        1 MOL1        -0.1947
     134    H3      18.544256   18.441313   21.302886 H          1 MOL1         0.0712
     135    H4      19.121691   20.075717   21.589649 H          1 MOL1         0.0712
     136    C4      20.592938   18.766334   20.683003 C.3        1 MOL1        -0.1921
     137    H5      20.841415   17.698616   20.675051 H          1 MOL1         0.0712
     138    H6      21.473332   19.296526   21.063354 H          1 MOL1         0.0712
     139    C5      20.283424   19.237584   19.248770 C.3        1 MOL1        -0.2936
     140    H7      19.389255   18.737495   18.855278 H          1 MOL1         0.0724
     141    H8      21.122991   19.013733   18.578758 H          1 MOL1         0.0724
     142    H9      20.110452   20.321334   19.225360 H          1 MOL1         0.0724
@<TRIPOS>BOND
    1     1     2    1
    2     1     3    1
    3     1     4    1
    4     4     5    1
    5     4     6    1
    6     6     7    1
    7     4     8    1
    8     8     9    1
    9     8    10    1
   10    10    11    1
   11     8    12    1
   12    12    13    1
   13    12    14    1
   14    14    15    1
   15     1    16    1
   16    14    16    1
   17    14    17    1
   18    17    18    1
   19    17    19    1
   20    17    20    1
   21    20    21    1
   22    22    23    1
   23    22    24    1
   24    22    25    1
   25    25    26    1
   26    25    27    1
   27    27    28    1
   28    25    29    1
   29    29    30    1
   30    29    31    1
   31    31    32    1
   32     3    33    1
   33    29    33    1
   34    33    34    1
   35    33    35    1
   36    35    36    1
   37    22    37    1
   38    35    37    1
   39    35    38    1
   40    38    39    1
   41    38    40    1
   42    38    41    1
   43    41    42    1
   44    43    44    1
   45    43    45    1
   46    43    46    1
   47    46    47    1
   48    46    48    1
   49    48    49    1
   50    46    50    1
   51    50    51    1
   52    50    52    1
   53    52    53    1
   54    24    54    1
   55    50    54    1
   56    54    55    1
   57    54    56    1
   58    56    57    1
   59    43    58    1
   60    56    58    1
   61    56    59    1
   62    59    60    1
   63    59    61    1
   64    59    62    1
   65    62    63    1
   66    64    65    1
   67    64    66    1
   68    64    67    1
   69    67    68    1
   70    67    69    1
   71    69    70    1
   72    67    71    1
   73    71    72    1
   74    71    73    1
   75    73    74    1
   76    45    75    1
   77    71    75    1
   78    75    76    1
   79    75    77    1
   80    77    78    1
   81    64    79    1
   82    77    79    1
   83    77    80    1
   84    80    81    1
   85    80    82    1
   86    80    83    1
   87    83    84    1
   88    85    86    1
   89    85    87    1
   90    85    88    1
   91    88    89    1
   92    88    90    1
   93    90    91    1
   94    88    92    1
   95    92    93    1
   96    92    94    1
   97    94    95    1
   98    66    96    1
   99    92    96    1
  100    96    97    1
  101    96    98    1
  102    98    99    1
  103    85   100    1
  104    98   100    1
  105    98   101    1
  106   101   102    1
  107   101   103    1
  108   101   104    1
  109   104   105    1
  110   106   107    1
  111    12   108    1
  112   106   108    1
  113   106   109    1
  114   109   110    1
  115   109   111    1
  116   111   112    1
  117   109   113    1
  118   113   114    1
  119   113   115    1
  120   115   116    1
  121    87   117    1
  122   113   117    1
  123   117   118    1
  124   117   119    1
  125   119   120    1
  126   106   121    1
  127   119   121    1
  128   119   122    1
  129   122   123    1
  130   122   124    1
  131   122   125    1
  132   125   126    1
  133   127   128    1
  134   127   129    2
  135   127   130    1
  136   130   131    1
  137   130   132    1
  138   130   133    1
  139   133   134    1
  140   133   135    1
  141   133   136    1
  142   136   137    1
  143   136   138    1
  144   136   139    1
  145   139   140    1
  146   139   141    1
  147   139   142    1
@<TRIPOS>SUBSTRUCTURE
       1 MOL1            1 RESIDUE      1      MOL     
       2 MOL1          142 RESIDUE      1      MOL     
@<SCITEGIC>MOL_PROPERTY
feprocess Rank
SciTegic.value.IntegerValue
2

@<SCITEGIC>MOL_PROPERTY
Conf_Id
SciTegic.value.IntegerValue
951

@<SCITEGIC>MOL_PROPERTY
Probability
SciTegic.value.DoubleValue
14.26

@<SCITEGIC>MOL_PROPERTY
G
SciTegic.value.DoubleValue
489.933

@<SCITEGIC>MOL_PROPERTY
E
SciTegic.value.DoubleValue
306.358

@<SCITEGIC>MOL_PROPERTY
-TS
SciTegic.value.DoubleValue
183.575

@<SCITEGIC>MOL_PROPERTY
U+W
SciTegic.value.DoubleValue
181.164

@<SCITEGIC>MOL_PROPERTY
U
SciTegic.value.DoubleValue
255.704

@<SCITEGIC>MOL_PROPERTY
W
SciTegic.value.DoubleValue
-74.540

@<SCITEGIC>MOL_PROPERTY
W(PB)
SciTegic.value.DoubleValue
-80.485

@<SCITEGIC>MOL_PROPERTY
W(SA)
SciTegic.value.DoubleValue
5.945

@<SCITEGIC>MOL_PROPERTY
Valence
SciTegic.value.DoubleValue
152.364

@<SCITEGIC>MOL_PROPERTY
Coulomb
SciTegic.value.DoubleValue
125.999

@<SCITEGIC>MOL_PROPERTY
VdW
SciTegic.value.DoubleValue
-22.659

@<SCITEGIC>MOL_PROPERTY
VdW6
SciTegic.value.DoubleValue
-185.431

@<SCITEGIC>MOL_PROPERTY
VdW12
SciTegic.value.DoubleValue
162.771

@<SCITEGIC>MOL_PROPERTY
Bond
SciTegic.value.DoubleValue
5.397

@<SCITEGIC>MOL_PROPERTY
Angle
SciTegic.value.DoubleValue
15.408

@<SCITEGIC>MOL_PROPERTY
Pdih
SciTegic.value.DoubleValue
131.500

@<SCITEGIC>MOL_PROPERTY
Idih
SciTegic.value.DoubleValue
0.059

@<SCITEGIC>MOL_PROPERTY
Tether
SciTegic.value.DoubleValue
0.000

@<TRIPOS>MOLECULE
CD_guest-s18_fast_vm2_rndm.mol2 : feprocess host+ligand conformer 3
         142         147           2
SMALL
USER_CHARGES
 
@<TRIPOS>ATOM
       1    C1      16.101367   15.058356   20.937717 C.3        1 MOL1         0.2972
       2    H1      15.014590   14.945454   20.833335 H          1 MOL1         0.0751
       3    O1      16.471877   16.437423   21.156728 O.3        1 MOL1        -0.3740
       4    C2      16.653699   14.172806   22.085776 C.3        1 MOL1         0.1003
       5    H2      16.488292   13.127780   21.792723 H          1 MOL1         0.0783
       6    O2      15.975377   14.410666   23.327372 O.3        1 MOL1        -0.5519
       7    H3      16.146102   15.354651   23.573666 H          1 MOL1         0.3769
       8    C3      18.180360   14.384996   22.232839 C.3        1 MOL1         0.1053
       9    H4      18.354060   15.420994   22.550042 H          1 MOL1         0.0783
      10    O3      18.697344   13.485673   23.219132 O.3        1 MOL1        -0.5519
      11    H5      18.066922   13.540486   23.971521 H          1 MOL1         0.3769
      12    C4      18.908052   14.154658   20.883181 C.3        1 MOL1         0.1018
      13    H6      18.968931   13.071594   20.714620 H          1 MOL1         0.0783
      14    C5      18.193090   14.831486   19.677090 C.3        1 MOL1         0.1043
      15    H7      18.381864   15.909343   19.728772 H          1 MOL1         0.0783
      16    O4      16.760158   14.610475   19.734013 O.3        1 MOL1        -0.3740
      17    C6      18.711986   14.341848   18.304050 C.3        1 MOL1         0.0138
      18    H8      19.732378   14.722339   18.161910 H          1 MOL1         0.0794
      19    H9      18.087178   14.782949   17.516014 H          1 MOL1         0.0794
      20    O5      18.707576   12.911890   18.202069 O.3        1 MOL1        -0.5486
      21    H10     19.007607   12.677737   17.296798 H          1 MOL1         0.3769
      22    C7      15.156879   20.189400   22.265133 C.3        1 MOL1         0.2972
      23    H11     14.615571   21.075047   22.619274 H          1 MOL1         0.0751
      24    O6      16.392214   20.546012   21.609705 O.3        1 MOL1        -0.3740
      25    C8      15.479963   19.254201   23.457145 C.3        1 MOL1         0.1003
      26    H12     14.524594   18.903268   23.867775 H          1 MOL1         0.0783
      27    O7      16.187900   19.972321   24.481159 O.3        1 MOL1        -0.5519
      28    H13     17.021045   19.475209   24.684666 H          1 MOL1         0.3769
      29    C9      16.266712   18.016056   22.960577 C.3        1 MOL1         0.1053
      30    H14     17.215935   18.365005   22.545928 H          1 MOL1         0.0783
      31    O8      16.518983   17.116452   24.046728 O.3        1 MOL1        -0.5519
      32    H15     17.273639   17.514495   24.557659 H          1 MOL1         0.3769
      33    C10     15.511667   17.290030   21.817520 C.3        1 MOL1         0.1018
      34    H16     14.677237   16.720214   22.247258 H          1 MOL1         0.0783
      35    C11     14.989730   18.277116   20.732533 C.3        1 MOL1         0.1043
      36    H17     15.856626   18.612772   20.151663 H          1 MOL1         0.0783
      37    O9      14.352066   19.437128   21.329967 O.3        1 MOL1        -0.3740
      38    C12     13.999154   17.627539   19.737261 C.3        1 MOL1         0.0138
      39    H18     14.554269   16.920559   19.105792 H          1 MOL1         0.0794
      40    H19     13.599833   18.409800   19.077904 H          1 MOL1         0.0794
      41    O10     12.931046   16.945538   20.406438 O.3        1 MOL1        -0.5486
      42    H20     12.306523   16.623935   19.720015 H          1 MOL1         0.3769
      43    C13     18.530823   23.878507   20.372944 C.3        1 MOL1         0.2972
      44    H21     18.883298   24.805857   19.903219 H          1 MOL1         0.0751
      45    O11     19.613789   23.138917   20.970386 O.3        1 MOL1        -0.3740
      46    C14     17.490012   24.179403   21.479636 C.3        1 MOL1         0.1003
      47    H22     16.655674   24.708169   21.000673 H          1 MOL1         0.0783
      48    O12     18.051377   25.020101   22.501348 O.3        1 MOL1        -0.5519
      49    H23     18.908387   24.610782   22.784084 H          1 MOL1         0.3769
      50    C15     16.927005   22.874260   22.101475 C.3        1 MOL1         0.1053
      51    H24     17.722858   22.404014   22.696007 H          1 MOL1         0.0783
      52    O13     15.826828   23.226798   22.946066 O.3        1 MOL1        -0.5519
      53    H25     16.166789   23.940517   23.528960 H          1 MOL1         0.3769
      54    C16     16.472139   21.856501   21.015468 C.3        1 MOL1         0.1018
      55    H26     15.503117   22.174475   20.610637 H          1 MOL1         0.0783
      56    C17     17.501547   21.726696   19.858798 C.3        1 MOL1         0.1043
      57    H27     18.387141   21.214836   20.252578 H          1 MOL1         0.0783
      58    O14     17.887933   23.039465   19.390597 O.3        1 MOL1        -0.3740
      59    C18     17.004423   20.891125   18.651481 C.3        1 MOL1         0.0138
      60    H28     17.165711   19.829210   18.874583 H          1 MOL1         0.0794
      61    H29     17.629773   21.128890   17.780747 H          1 MOL1         0.0794
      62    O15     15.622584   21.114852   18.343099 O.3        1 MOL1        -0.5486
      63    H30     15.095773   20.781179   19.101716 H          1 MOL1         0.3769
      64    C19     23.682611   22.984104   21.421829 C.3        1 MOL1         0.2972
      65    H31     24.769916   23.121063   21.482765 H          1 MOL1         0.0751
      66    O16     23.321944   21.584184   21.430132 O.3        1 MOL1        -0.3740
      67    C20     22.955297   23.722597   22.575209 C.3        1 MOL1         0.1003
      68    H32     23.119307   24.797446   22.423128 H          1 MOL1         0.0783
      69    O17     23.473840   23.359902   23.862606 O.3        1 MOL1        -0.5519
      70    H33     23.316268   22.388206   23.975915 H          1 MOL1         0.3769
      71    C21     21.432267   23.461207   22.490321 C.3        1 MOL1         0.1053
      72    H34     21.257556   22.392107   22.668670 H          1 MOL1         0.0783
      73    O18     20.754324   24.234071   23.486983 O.3        1 MOL1        -0.5519
      74    H35     21.268882   24.094296   24.312918 H          1 MOL1         0.3769
      75    C22     20.877257   23.821081   21.087779 C.3        1 MOL1         0.1018
      76    H36     20.757815   24.911595   21.041086 H          1 MOL1         0.0783
      77    C23     21.780147   23.333289   19.913677 C.3        1 MOL1         0.1043
      78    H37     21.628486   22.255523   19.788551 H          1 MOL1         0.0783
      79    O19     23.182378   23.568204   20.200510 O.3        1 MOL1        -0.3740
      80    C24     21.439370   23.993156   18.556055 C.3        1 MOL1         0.0138
      81    H38     20.474926   23.598033   18.209272 H          1 MOL1         0.0794
      82    H39     22.197368   23.691289   17.820927 H          1 MOL1         0.0794
      83    O20     21.375499   25.422153   18.647873 O.3        1 MOL1        -0.5486
      84    H40     21.231165   25.772410   17.741699 H          1 MOL1         0.3769
      85    C25     24.691127   17.756232   22.265831 C.3        1 MOL1         0.2972
      86    H41     25.264402   16.874724   22.578568 H          1 MOL1         0.0751
      87    O21     23.564704   17.392399   21.440893 O.3        1 MOL1        -0.3740
      88    C26     24.173201   18.536345   23.502028 C.3        1 MOL1         0.1003
      89    H42     25.052124   18.861388   24.073349 H          1 MOL1         0.0783
      90    O22     23.358893   17.698041   24.335561 O.3        1 MOL1        -0.5519
      91    H43     23.549692   16.763451   24.087075 H          1 MOL1         0.3769
      92    C27     23.394110   19.800842   23.060835 C.3        1 MOL1         0.1053
      93    H44     22.495703   19.475099   22.526207 H          1 MOL1         0.0783
      94    O23     23.023509   20.569686   24.210566 O.3        1 MOL1        -0.5519
      95    H45     22.314105   20.043803   24.674075 H          1 MOL1         0.3769
      96    C28     24.229186   20.670396   22.084696 C.3        1 MOL1         0.1018
      97    H46     25.001988   21.198817   22.658457 H          1 MOL1         0.0783
      98    C29     24.887774   19.823471   20.958680 C.3        1 MOL1         0.1043
      99    H47     24.096117   19.501179   20.269866 H          1 MOL1         0.0783
     100    O24     25.536439   18.650138   21.510931 O.3        1 MOL1        -0.3740
     101    C30     25.926331   20.613043   20.126241 C.3        1 MOL1         0.0138
     102    H48     25.391359   21.352897   19.515357 H          1 MOL1         0.0794
     103    H49     26.423601   19.918240   19.436297 H          1 MOL1         0.0794
     104    O25     26.893634   21.274171   20.952198 O.3        1 MOL1        -0.5486
     105    H50     27.555678   21.691765   20.359011 H          1 MOL1         0.3769
     106    C31     21.335906   13.947410   20.599168 C.3        1 MOL1         0.2972
     107    H51     21.018452   12.956749   20.249584 H          1 MOL1         0.0751
     108    O26     20.213690   14.756018   21.007677 O.3        1 MOL1        -0.3740
     109    C32     22.286862   13.815431   21.814593 C.3        1 MOL1         0.1003
     110    H52     23.155753   13.231365   21.484267 H          1 MOL1         0.0783
     111    O27     21.646476   13.125012   22.899864 O.3        1 MOL1        -0.5519
     112    H53     20.713019   13.453607   22.951288 H          1 MOL1         0.3769
     113    C33     22.799705   15.202572   22.279701 C.3        1 MOL1         0.1053
     114    H54     21.946078   15.769899   22.675905 H          1 MOL1         0.0783
     115    O28     23.770781   14.992903   23.310923 O.3        1 MOL1        -0.5519
     116    H55     23.398914   14.263949   23.858886 H          1 MOL1         0.3769
     117    C34     23.409367   16.000328   21.090481 C.3        1 MOL1         0.1018
     118    H56     24.372375   15.553592   20.812706 H          1 MOL1         0.0783
     119    C35     22.464675   15.989073   19.858735 C.3        1 MOL1         0.1043
     120    H57     21.578939   16.579997   20.112278 H          1 MOL1         0.0783
     121    O29     22.055474   14.634982   19.553274 O.3        1 MOL1        -0.3740
     122    C36     23.083139   16.623774   18.588554 C.3        1 MOL1         0.0138
     123    H58     23.100208   17.714254   18.717232 H          1 MOL1         0.0794
     124    H59     22.425103   16.409953   17.736028 H          1 MOL1         0.0794
     125    O30     24.408425   16.149085   18.321161 O.3        1 MOL1        -0.5486
     126    H60     24.999937   16.538798   19.000372 H          1 MOL1         0.3769
     127    C1      19.640965   19.204452   24.557235 C.2        1 MOL1         0.6075
     128    O1      20.603563   19.524238   25.226863 O.co2      1 MOL1        -0.6830
     129    O2      18.636300   18.679327   25.004200 O.co2      1 MOL1        -0.6830
     130    C2      19.663340   19.527472   23.067832 C.3        1 MOL1        -0.2050
     131    H1      20.435245   20.281206   22.890888 H          1 MOL1         0.0710
     132    H2      18.709286   20.001923   22.819424 H          1 MOL1         0.0710
     133    C3      19.902222   18.279474   22.175189 C.3        1 MOL1        -0.1947
     134    H3      20.924816   17.909688   22.316808 H          1 MOL1         0.0712
     135    H4      19.244976   17.468903   22.509705 H          1 MOL1         0.0712
     136    C4      19.632999   18.550588   20.679323 C.3        1 MOL1        -0.1921
     137    H5      18.610515   18.927745   20.556710 H          1 MOL1         0.0712
     138    H6      19.676317   17.607031   20.126972 H          1 MOL1         0.0712
     139    C5      20.642376   19.537594   20.061979 C.3        1 MOL1        -0.2936
     140    H7      20.591860   20.507125   20.568159 H          1 MOL1         0.0724
     141    H8      20.432074   19.696554   18.997063 H          1 MOL1         0.0724
     142    H9      21.667391   19.160373   20.158003 H          1 MOL1         0.0724
@<TRIPOS>BOND
    1     1     2    1
    2     1     3    1
    3     1     4    1
    4     4     5    1
    5     4     6    1
    6     6     7    1
    7     4     8    1
    8     8     9    1
    9     8    10    1
   10    10    11    1
   11     8    12    1
   12    12    13    1
   13    12    14    1
   14    14    15    1
   15     1    16    1
   16    14    16    1
   17    14    17    1
   18    17    18    1
   19    17    19    1
   20    17    20    1
   21    20    21    1
   22    22    23    1
   23    22    24    1
   24    22    25    1
   25    25    26    1
   26    25    27    1
   27    27    28    1
   28    25    29    1
   29    29    30    1
   30    29    31    1
   31    31    32    1
   32     3    33    1
   33    29    33    1
   34    33    34    1
   35    33    35    1
   36    35    36    1
   37    22    37    1
   38    35    37    1
   39    35    38    1
   40    38    39    1
   41    38    40    1
   42    38    41    1
   43    41    42    1
   44    43    44    1
   45    43    45    1
   46    43    46    1
   47    46    47    1
   48    46    48    1
   49    48    49    1
   50    46    50    1
   51    50    51    1
   52    50    52    1
   53    52    53    1
   54    24    54    1
   55    50    54    1
   56    54    55    1
   57    54    56    1
   58    56    57    1
   59    43    58    1
   60    56    58    1
   61    56    59    1
   62    59    60    1
   63    59    61    1
   64    59    62    1
   65    62    63    1
   66    64    65    1
   67    64    66    1
   68    64    67    1
   69    67    68    1
   70    67    69    1
   71    69    70    1
   72    67    71    1
   73    71    72    1
   74    71    73    1
   75    73    74    1
   76    45    75    1
   77    71    75    1
   78    75    76    1
   79    75    77    1
   80    77    78    1
   81    64    79    1
   82    77    79    1
   83    77    80    1
   84    80    81    1
   85    80    82    1
   86    80    83    1
   87    83    84    1
   88    85    86    1
   89    85    87    1
   90    85    88    1
   91    88    89    1
   92    88    90    1
   93    90    91    1
   94    88    92    1
   95    92    93    1
   96    92    94    1
   97    94    95    1
   98    66    96    1
   99    92    96    1
  100    96    97    1
  101    96    98    1
  102    98    99    1
  103    85   100    1
  104    98   100    1
  105    98   101    1
  106   101   102    1
  107   101   103    1
  108   101   104    1
  109   104   105    1
  110   106   107    1
  111    12   108    1
  112   106   108    1
  113   106   109    1
  114   109   110    1
  115   109   111    1
  116   111   112    1
  117   109   113    1
  118   113   114    1
  119   113   115    1
  120   115   116    1
  121    87   117    1
  122   113   117    1
  123   117   118    1
  124   117   119    1
  125   119   120    1
  126   106   121    1
  127   119   121    1
  128   119   122    1
  129   122   123    1
  130   122   124    1
  131   122   125    1
  132   125   126    1
  133   127   128    1
  134   127   129    2
  135   127   130    1
  136   130   131    1
  137   130   132    1
  138   130   133    1
  139   133   134    1
  140   133   135    1
  141   133   136    1
  142   136   137    1
  143   136   138    1
  144   136   139    1
  145   139   140    1
  146   139   141    1
  147   139   142    1
@<TRIPOS>SUBSTRUCTURE
       1 MOL1            1 RESIDUE      1      MOL     
       2 MOL1          142 RESIDUE      1      MOL     
@<SCITEGIC>MOL_PROPERTY
feprocess Rank
SciTegic.value.IntegerValue
3

@<SCITEGIC>MOL_PROPERTY
Conf_Id
SciTegic.value.IntegerValue
564

@<SCITEGIC>MOL_PROPERTY
Probability
SciTegic.value.DoubleValue
11.99

@<SCITEGIC>MOL_PROPERTY
G
SciTegic.value.DoubleValue
490.036

@<SCITEGIC>MOL_PROPERTY
E
SciTegic.value.DoubleValue
306.102

@<SCITEGIC>MOL_PROPERTY
-TS
SciTegic.value.DoubleValue
183.934

@<SCITEGIC>MOL_PROPERTY
U+W
SciTegic.value.DoubleValue
180.908

@<SCITEGIC>MOL_PROPERTY
U
SciTegic.value.DoubleValue
261.970

@<SCITEGIC>MOL_PROPERTY
W
SciTegic.value.DoubleValue
-81.062

@<SCITEGIC>MOL_PROPERTY
W(PB)
SciTegic.value.DoubleValue
-87.120

@<SCITEGIC>MOL_PROPERTY
W(SA)
SciTegic.value.DoubleValue
6.059

@<SCITEGIC>MOL_PROPERTY
Valence
SciTegic.value.DoubleValue
150.485

@<SCITEGIC>MOL_PROPERTY
Coulomb
SciTegic.value.DoubleValue
133.399

@<SCITEGIC>MOL_PROPERTY
VdW
SciTegic.value.DoubleValue
-21.913

@<SCITEGIC>MOL_PROPERTY
VdW6
SciTegic.value.DoubleValue
-181.571

@<SCITEGIC>MOL_PROPERTY
VdW12
SciTegic.value.DoubleValue
159.657

@<SCITEGIC>MOL_PROPERTY
Bond
SciTegic.value.DoubleValue
5.300

@<SCITEGIC>MOL_PROPERTY
Angle
SciTegic.value.DoubleValue
14.463

@<SCITEGIC>MOL_PROPERTY
Pdih
SciTegic.value.DoubleValue
130.718

@<SCITEGIC>MOL_PROPERTY
Idih
SciTegic.value.DoubleValue
0.004

@<SCITEGIC>MOL_PROPERTY
Tether
SciTegic.value.DoubleValue
0.000

@<TRIPOS>MOLECULE
CD_guest-s18_fast_vm2_rndm.mol2 : feprocess host+ligand conformer 4
         142         147           2
SMALL
USER_CHARGES
 
@<TRIPOS>ATOM
       1    C1      16.481297   15.407362   22.179707 C.3        1 MOL1         0.2972
       2    H1      15.453387   15.349333   22.558487 H          1 MOL1         0.0751
       3    O1      16.788028   16.732087   21.698100 O.3        1 MOL1        -0.3740
       4    C2      17.476500   15.030374   23.306102 C.3        1 MOL1         0.1003
       5    H2      17.272267   13.988733   23.584818 H          1 MOL1         0.0783
       6    O2      17.283420   15.865239   24.459649 O.3        1 MOL1        -0.5519
       7    H3      18.102152   16.416728   24.563830 H          1 MOL1         0.3769
       8    C3      18.932082   15.107430   22.788233 C.3        1 MOL1         0.1053
       9    H4      19.144465   16.153812   22.538798 H          1 MOL1         0.0783
      10    O3      19.843406   14.671267   23.803423 O.3        1 MOL1        -0.5519
      11    H5      19.954897   15.462859   24.394607 H          1 MOL1         0.3769
      12    C4      19.127840   14.275759   21.497515 C.3        1 MOL1         0.1018
      13    H6      19.206583   13.212090   21.757566 H          1 MOL1         0.0783
      14    C5      17.988593   14.501354   20.463344 C.3        1 MOL1         0.1043
      15    H7      18.149907   15.491097   20.024432 H          1 MOL1         0.0783
      16    O4      16.678622   14.477740   21.090372 O.3        1 MOL1        -0.3740
      17    C6      18.000260   13.480668   19.300708 C.3        1 MOL1         0.0138
      18    H8      18.878297   13.680144   18.671577 H          1 MOL1         0.0794
      19    H9      17.110150   13.644818   18.678644 H          1 MOL1         0.0794
      20    O5      18.036906   12.127973   19.771600 O.3        1 MOL1        -0.5486
      21    H10     17.966892   11.537764   18.989687 H          1 MOL1         0.3769
      22    C7      14.929396   20.279405   20.611737 C.3        1 MOL1         0.2972
      23    H11     14.297341   21.069006   20.185203 H          1 MOL1         0.0751
      24    O6      16.106444   20.815193   21.241566 O.3        1 MOL1        -0.3740
      25    C8      14.162381   19.474241   21.688112 C.3        1 MOL1         0.1003
      26    H12     13.280564   19.037189   21.201877 H          1 MOL1         0.0783
      27    O7      13.737111   20.336045   22.757515 O.3        1 MOL1        -0.5519
      28    H13     14.523106   20.874291   23.028926 H          1 MOL1         0.3769
      29    C9      15.025458   18.312944   22.248009 C.3        1 MOL1         0.1053
      30    H14     15.823081   18.747980   22.865459 H          1 MOL1         0.0783
      31    O8      14.184842   17.480506   23.053289 O.3        1 MOL1        -0.5519
      32    H15     13.729069   18.093087   23.671110 H          1 MOL1         0.3769
      33    C10     15.695521   17.475806   21.120811 C.3        1 MOL1         0.1018
      34    H16     14.941731   16.810044   20.681566 H          1 MOL1         0.0783
      35    C11     16.311246   18.364605   20.002624 C.3        1 MOL1         0.1043
      36    H17     17.191331   18.873920   20.413969 H          1 MOL1         0.0783
      37    O9      15.344021   19.355324   19.584207 O.3        1 MOL1        -0.3740
      38    C12     16.795156   17.588651   18.750942 C.3        1 MOL1         0.0138
      39    H18     17.833566   17.276666   18.918253 H          1 MOL1         0.0794
      40    H19     16.811329   18.277791   17.896169 H          1 MOL1         0.0794
      41    O10     15.984048   16.445982   18.446359 O.3        1 MOL1        -0.5486
      42    H20     16.042224   15.831676   19.211617 H          1 MOL1         0.3769
      43    C13     18.385331   24.200819   21.631626 C.3        1 MOL1         0.2972
      44    H21     18.804192   25.212061   21.712645 H          1 MOL1         0.0751
      45    O11     19.416052   23.194889   21.643391 O.3        1 MOL1        -0.3740
      46    C14     17.441809   23.928882   22.826727 C.3        1 MOL1         0.1003
      47    H22     16.621821   24.657161   22.778906 H          1 MOL1         0.0783
      48    O12     18.152275   24.087274   24.065130 O.3        1 MOL1        -0.5519
      49    H23     19.095190   23.853092   23.882767 H          1 MOL1         0.3769
      50    C15     16.834130   22.511222   22.729050 C.3        1 MOL1         0.1053
      51    H24     17.645815   21.789407   22.882911 H          1 MOL1         0.0783
      52    O13     15.839822   22.338446   23.745187 O.3        1 MOL1        -0.5519
      53    H25     16.259928   22.668694   24.570158 H          1 MOL1         0.3769
      54    C16     16.208151   22.245591   21.338099 C.3        1 MOL1         0.1018
      55    H26     15.225519   22.734026   21.298160 H          1 MOL1         0.0783
      56    C17     17.103456   22.725348   20.159004 C.3        1 MOL1         0.1043
      57    H27     17.940940   22.021234   20.073847 H          1 MOL1         0.0783
      58    O14     17.625855   24.055063   20.414654 O.3        1 MOL1        -0.3740
      59    C18     16.380541   22.743072   18.790824 C.3        1 MOL1         0.0138
      60    H28     16.225415   21.706459   18.463150 H          1 MOL1         0.0794
      61    H29     17.038655   23.221293   18.052948 H          1 MOL1         0.0794
      62    O15     15.123164   23.427478   18.853457 O.3        1 MOL1        -0.5486
      63    H30     14.758638   23.465153   17.942362 H          1 MOL1         0.3769
      64    C19     23.488062   22.649316   20.897901 C.3        1 MOL1         0.2972
      65    H31     24.538404   22.780884   20.608426 H          1 MOL1         0.0751
      66    O16     23.185872   21.260185   21.143115 O.3        1 MOL1        -0.3740
      67    C20     23.134253   23.519106   22.139709 C.3        1 MOL1         0.1003
      68    H32     23.301575   24.564706   21.850307 H          1 MOL1         0.0783
      69    O17     23.964400   23.222498   23.272040 O.3        1 MOL1        -0.5519
      70    H33     23.744862   22.296982   23.549488 H          1 MOL1         0.3769
      71    C21     21.638145   23.369800   22.509992 C.3        1 MOL1         0.1053
      72    H34     21.467080   22.337952   22.845115 H          1 MOL1         0.0783
      73    O18     21.305617   24.283610   23.561473 O.3        1 MOL1        -0.5519
      74    H35     22.030046   24.193668   24.219507 H          1 MOL1         0.3769
      75    C22     20.736348   23.637395   21.281052 C.3        1 MOL1         0.1018
      76    H36     20.766405   24.711403   21.055323 H          1 MOL1         0.0783
      77    C23     21.203642   22.837847   20.033451 C.3        1 MOL1         0.1043
      78    H37     21.037953   21.772675   20.233641 H          1 MOL1         0.0783
      79    O19     22.619854   23.078883   19.824350 O.3        1 MOL1        -0.3740
      80    C24     20.449421   23.165996   18.718872 C.3        1 MOL1         0.0138
      81    H38     19.584310   22.496716   18.637817 H          1 MOL1         0.0794
      82    H39     21.108180   22.931538   17.872119 H          1 MOL1         0.0794
      83    O20     20.011889   24.527523   18.637945 O.3        1 MOL1        -0.5486
      84    H40     19.196417   24.597562   19.187123 H          1 MOL1         0.3769
      85    C25     24.694704   17.562435   22.183224 C.3        1 MOL1         0.2972
      86    H41     25.279634   16.704279   22.536670 H          1 MOL1         0.0751
      87    O21     23.519616   17.143359   21.459495 O.3        1 MOL1        -0.3740
      88    C26     24.268182   18.444420   23.384931 C.3        1 MOL1         0.1003
      89    H42     25.187148   18.818670   23.853689 H          1 MOL1         0.0783
      90    O22     23.537782   17.671970   24.352535 O.3        1 MOL1        -0.5519
      91    H43     22.639194   18.082191   24.457772 H          1 MOL1         0.3769
      92    C27     23.454629   19.667726   22.899116 C.3        1 MOL1         0.1053
      93    H44     22.510574   19.295756   22.481639 H          1 MOL1         0.0783
      94    O23     23.187275   20.549203   23.996837 O.3        1 MOL1        -0.5519
      95    H45     22.421459   20.133260   24.476441 H          1 MOL1         0.3769
      96    C28     24.190485   20.442884   21.778491 C.3        1 MOL1         0.1018
      97    H46     24.993293   21.042410   22.226456 H          1 MOL1         0.0783
      98    C29     24.777772   19.502672   20.687615 C.3        1 MOL1         0.1043
      99    H47     23.939832   19.116864   20.093577 H          1 MOL1         0.0783
     100    O24     25.481608   18.387446   21.295796 O.3        1 MOL1        -0.3740
     101    C30     25.738838   20.216709   19.707516 C.3        1 MOL1         0.0138
     102    H48     25.147780   20.884287   19.066105 H          1 MOL1         0.0794
     103    H49     26.198636   19.461612   19.055953 H          1 MOL1         0.0794
     104    O25     26.749988   20.968825   20.390004 O.3        1 MOL1        -0.5486
     105    H50     27.364896   21.325399   19.712289 H          1 MOL1         0.3769
     106    C31     21.333215   13.844900   20.451836 C.3        1 MOL1         0.2972
     107    H51     20.880154   12.916893   20.080301 H          1 MOL1         0.0751
     108    O26     20.329399   14.785220   20.886529 O.3        1 MOL1        -0.3740
     109    C32     22.340664   13.563214   21.596272 C.3        1 MOL1         0.1003
     110    H52     23.145908   12.955687   21.162986 H          1 MOL1         0.0783
     111    O27     21.740873   12.825714   22.671890 O.3        1 MOL1        -0.5519
     112    H53     21.063927   13.421322   23.082020 H          1 MOL1         0.3769
     113    C33     22.976019   14.876501   22.120058 C.3        1 MOL1         0.1053
     114    H54     22.205448   15.437608   22.667462 H          1 MOL1         0.0783
     115    O28     24.050501   14.533104   23.001673 O.3        1 MOL1        -0.5519
     116    H55     23.660189   13.921896   23.663331 H          1 MOL1         0.3769
     117    C34     23.502514   15.786630   20.972281 C.3        1 MOL1         0.1018
     118    H56     24.505893   15.452022   20.681514 H          1 MOL1         0.0783
     119    C35     22.582493   15.809064   19.717977 C.3        1 MOL1         0.1043
     120    H57     21.726350   16.453060   19.947517 H          1 MOL1         0.0783
     121    O29     22.093966   14.480864   19.404329 O.3        1 MOL1        -0.3740
     122    C36     23.253451   16.407842   18.457284 C.3        1 MOL1         0.0138
     123    H58     23.349422   17.492621   18.594698 H          1 MOL1         0.0794
     124    H59     22.583476   16.250974   17.601598 H          1 MOL1         0.0794
     125    O30     24.539358   15.837102   18.184338 O.3        1 MOL1        -0.5486
     126    H60     25.168128   16.191427   18.848973 H          1 MOL1         0.3769
     127    C1      20.010934   18.414071   24.370894 C.2        1 MOL1         0.6075
     128    O1      21.043963   18.963678   24.702390 O.co2      1 MOL1        -0.6830
     129    O2      19.694697   17.301635   24.748921 O.co2      1 MOL1        -0.6830
     130    C2      19.034829   19.170937   23.470145 C.3        1 MOL1        -0.2050
     131    H1      18.687158   20.038090   24.041991 H          1 MOL1         0.0710
     132    H2      18.158379   18.536596   23.297631 H          1 MOL1         0.0710
     133    C3      19.611939   19.650249   22.109748 C.3        1 MOL1        -0.1947
     134    H3      18.864193   20.282377   21.616424 H          1 MOL1         0.0712
     135    H4      20.486667   20.287589   22.286191 H          1 MOL1         0.0712
     136    C4      19.986006   18.490409   21.161898 C.3        1 MOL1        -0.1921
     137    H5      19.123101   17.828681   21.032153 H          1 MOL1         0.0712
     138    H6      20.782421   17.882159   21.611650 H          1 MOL1         0.0712
     139    C5      20.434515   19.006952   19.779632 C.3        1 MOL1        -0.2936
     140    H7      19.688818   19.690525   19.354266 H          1 MOL1         0.0724
     141    H8      20.564823   18.176424   19.075940 H          1 MOL1         0.0724
     142    H9      21.390559   19.539092   19.856535 H          1 MOL1         0.0724
@<TRIPOS>BOND
    1     1     2    1
    2     1     3    1
    3     1     4    1
    4     4     5    1
    5     4     6    1
    6     6     7    1
    7     4     8    1
    8     8     9    1
    9     8    10    1
   10    10    11    1
   11     8    12    1
   12    12    13    1
   13    12    14    1
   14    14    15    1
   15     1    16    1
   16    14    16    1
   17    14    17    1
   18    17    18    1
   19    17    19    1
   20    17    20    1
   21    20    21    1
   22    22    23    1
   23    22    24    1
   24    22    25    1
   25    25    26    1
   26    25    27    1
   27    27    28    1
   28    25    29    1
   29    29    30    1
   30    29    31    1
   31    31    32    1
   32     3    33    1
   33    29    33    1
   34    33    34    1
   35    33    35    1
   36    35    36    1
   37    22    37    1
   38    35    37    1
   39    35    38    1
   40    38    39    1
   41    38    40    1
   42    38    41    1
   43    41    42    1
   44    43    44    1
   45    43    45    1
   46    43    46    1
   47    46    47    1
   48    46    48    1
   49    48    49    1
   50    46    50    1
   51    50    51    1
   52    50    52    1
   53    52    53    1
   54    24    54    1
   55    50    54    1
   56    54    55    1
   57    54    56    1
   58    56    57    1
   59    43    58    1
   60    56    58    1
   61    56    59    1
   62    59    60    1
   63    59    61    1
   64    59    62    1
   65    62    63    1
   66    64    65    1
   67    64    66    1
   68    64    67    1
   69    67    68    1
   70    67    69    1
   71    69    70    1
   72    67    71    1
   73    71    72    1
   74    71    73    1
   75    73    74    1
   76    45    75    1
   77    71    75    1
   78    75    76    1
   79    75    77    1
   80    77    78    1
   81    64    79    1
   82    77    79    1
   83    77    80    1
   84    80    81    1
   85    80    82    1
   86    80    83    1
   87    83    84    1
   88    85    86    1
   89    85    87    1
   90    85    88    1
   91    88    89    1
   92    88    90    1
   93    90    91    1
   94    88    92    1
   95    92    93    1
   96    92    94    1
   97    94    95    1
   98    66    96    1
   99    92    96    1
  100    96    97    1
  101    96    98    1
  102    98    99    1
  103    85   100    1
  104    98   100    1
  105    98   101    1
  106   101   102    1
  107   101   103    1
  108   101   104    1
  109   104   105    1
  110   106   107    1
  111    12   108    1
  112   106   108    1
  113   106   109    1
  114   109   110    1
  115   109   111    1
  116   111   112    1
  117   109   113    1
  118   113   114    1
  119   113   115    1
  120   115   116    1
  121    87   117    1
  122   113   117    1
  123   117   118    1
  124   117   119    1
  125   119   120    1
  126   106   121    1
  127   119   121    1
  128   119   122    1
  129   122   123    1
  130   122   124    1
  131   122   125    1
  132   125   126    1
  133   127   128    1
  134   127   129    2
  135   127   130    1
  136   130   131    1
  137   130   132    1
  138   130   133    1
  139   133   134    1
  140   133   135    1
  141   133   136    1
  142   136   137    1
  143   136   138    1
  144   136   139    1
  145   139   140    1
  146   139   141    1
  147   139   142    1
@<TRIPOS>SUBSTRUCTURE
       1 MOL1            1 RESIDUE      1      MOL     
       2 MOL1          142 RESIDUE      1      MOL     
@<SCITEGIC>MOL_PROPERTY
feprocess Rank
SciTegic.value.IntegerValue
4

@<SCITEGIC>MOL_PROPERTY
Conf_Id
SciTegic.value.IntegerValue
76

@<SCITEGIC>MOL_PROPERTY
Probability
SciTegic.value.DoubleValue
8.56

@<SCITEGIC>MOL_PROPERTY
G
SciTegic.value.DoubleValue
490.237

@<SCITEGIC>MOL_PROPERTY
E
SciTegic.value.DoubleValue
305.974

@<SCITEGIC>MOL_PROPERTY
-TS
SciTegic.value.DoubleValue
184.263

@<SCITEGIC>MOL_PROPERTY
U+W
SciTegic.value.DoubleValue
180.780

@<SCITEGIC>MOL_PROPERTY
U
SciTegic.value.DoubleValue
251.018

@<SCITEGIC>MOL_PROPERTY
W
SciTegic.value.DoubleValue
-70.238

@<SCITEGIC>MOL_PROPERTY
W(PB)
SciTegic.value.DoubleValue
-76.146

@<SCITEGIC>MOL_PROPERTY
W(SA)
SciTegic.value.DoubleValue
5.908

@<SCITEGIC>MOL_PROPERTY
Valence
SciTegic.value.DoubleValue
151.921

@<SCITEGIC>MOL_PROPERTY
Coulomb
SciTegic.value.DoubleValue
122.581

@<SCITEGIC>MOL_PROPERTY
VdW
SciTegic.value.DoubleValue
-23.484

@<SCITEGIC>MOL_PROPERTY
VdW6
SciTegic.value.DoubleValue
-185.435

@<SCITEGIC>MOL_PROPERTY
VdW12
SciTegic.value.DoubleValue
161.951

@<SCITEGIC>MOL_PROPERTY
Bond
SciTegic.value.DoubleValue
5.191

@<SCITEGIC>MOL_PROPERTY
Angle
SciTegic.value.DoubleValue
15.698

@<SCITEGIC>MOL_PROPERTY
Pdih
SciTegic.value.DoubleValue
131.030

@<SCITEGIC>MOL_PROPERTY
Idih
SciTegic.value.DoubleValue
0.003

@<SCITEGIC>MOL_PROPERTY
Tether
SciTegic.value.DoubleValue
0.000

@<TRIPOS>MOLECULE
CD_guest-s18_fast_vm2_rndm.mol2 : feprocess host+ligand conformer 5
         142         147           2
SMALL
USER_CHARGES
 
@<TRIPOS>ATOM
       1    C1      16.185557   15.361204   21.645039 C.3        1 MOL1         0.2972
       2    H1      15.110015   15.239985   21.827212 H          1 MOL1         0.0751
       3    O1      16.489115   16.654551   21.087269 O.3        1 MOL1        -0.3740
       4    C2      16.980259   15.177853   22.963064 C.3        1 MOL1         0.1003
       5    H2      16.791053   14.154895   23.313619 H          1 MOL1         0.0783
       6    O2      16.556486   16.105345   23.974986 O.3        1 MOL1        -0.5519
       7    H3      15.760185   16.574931   23.627218 H          1 MOL1         0.3769
       8    C3      18.498296   15.324904   22.714359 C.3        1 MOL1         0.1053
       9    H4      18.696693   16.370869   22.445916 H          1 MOL1         0.0783
      10    O3      19.198267   14.990126   23.916981 O.3        1 MOL1        -0.5519
      11    H5      18.727613   15.490511   24.621026 H          1 MOL1         0.3769
      12    C4      18.984131   14.428042   21.548162 C.3        1 MOL1         0.1018
      13    H6      19.067653   13.394959   21.910582 H          1 MOL1         0.0783
      14    C5      18.043065   14.483841   20.309988 C.3        1 MOL1         0.1043
      15    H7      18.189095   15.455338   19.819649 H          1 MOL1         0.0783
      16    O4      16.655141   14.362045   20.716075 O.3        1 MOL1        -0.3740
      17    C6      18.342001   13.392573   19.254211 C.3        1 MOL1         0.0138
      18    H8      19.290895   13.638505   18.758640 H          1 MOL1         0.0794
      19    H9      17.556600   13.423720   18.487180 H          1 MOL1         0.0794
      20    O5      18.421216   12.084096   19.833673 O.3        1 MOL1        -0.5486
      21    H10     18.527591   11.439384   19.100383 H          1 MOL1         0.3769
      22    C7      14.790037   20.356250   20.435469 C.3        1 MOL1         0.2972
      23    H11     14.198014   21.232597   20.141865 H          1 MOL1         0.0751
      24    O6      16.106419   20.731534   20.892016 O.3        1 MOL1        -0.3740
      25    C8      14.072218   19.526808   21.532389 C.3        1 MOL1         0.1003
      26    H12     13.152141   19.131091   21.082708 H          1 MOL1         0.0783
      27    O7      13.716471   20.324017   22.670929 O.3        1 MOL1        -0.5519
      28    H13     14.561136   20.660456   23.064126 H          1 MOL1         0.3769
      29    C9      14.948564   18.320917   21.952541 C.3        1 MOL1         0.1053
      30    H14     15.858812   18.706675   22.433223 H          1 MOL1         0.0783
      31    O8      14.214652   17.512887   22.878940 O.3        1 MOL1        -0.5519
      32    H15     13.756434   18.154793   23.467918 H          1 MOL1         0.3769
      33    C10     15.369801   17.480239   20.715150 C.3        1 MOL1         0.1018
      34    H16     14.515457   16.874962   20.386976 H          1 MOL1         0.0783
      35    C11     15.859981   18.354627   19.525198 C.3        1 MOL1         0.1043
      36    H17     16.853943   18.745062   19.774462 H          1 MOL1         0.0783
      37    O9      14.959604   19.470490   19.308053 O.3        1 MOL1        -0.3740
      38    C12     16.016431   17.569670   18.199378 C.3        1 MOL1         0.0138
      39    H18     16.896979   16.918561   18.281836 H          1 MOL1         0.0794
      40    H19     16.219733   18.287224   17.393482 H          1 MOL1         0.0794
      41    O10     14.862275   16.783475   17.877704 O.3        1 MOL1        -0.5486
      42    H20     14.866758   15.998746   18.466930 H          1 MOL1         0.3769
      43    C13     18.543560   23.749629   22.218679 C.3        1 MOL1         0.2972
      44    H21     19.012719   24.664593   22.601018 H          1 MOL1         0.0751
      45    O11     19.529659   22.817750   21.728798 O.3        1 MOL1        -0.3740
      46    C14     17.722266   23.072822   23.344349 C.3        1 MOL1         0.1003
      47    H22     16.919731   23.766253   23.626622 H          1 MOL1         0.0783
      48    O12     18.559319   22.840797   24.488864 O.3        1 MOL1        -0.5519
      49    H23     18.286512   21.986436   24.910592 H          1 MOL1         0.3769
      50    C15     17.058712   21.771065   22.828472 C.3        1 MOL1         0.1053
      51    H24     17.850865   21.042961   22.611809 H          1 MOL1         0.0783
      52    O13     16.169318   21.243530   23.821145 O.3        1 MOL1        -0.5519
      53    H25     16.739035   20.862037   24.540282 H          1 MOL1         0.3769
      54    C16     16.262294   22.019321   21.519731 C.3        1 MOL1         0.1018
      55    H26     15.296628   22.476720   21.772646 H          1 MOL1         0.0783
      56    C17     17.022367   22.906648   20.493696 C.3        1 MOL1         0.1043
      57    H27     17.806346   22.283560   20.051318 H          1 MOL1         0.0783
      58    O14     17.640608   24.052751   21.133298 O.3        1 MOL1        -0.3740
      59    C18     16.132916   23.408785   19.331299 C.3        1 MOL1         0.0138
      60    H28     15.878030   22.551906   18.693037 H          1 MOL1         0.0794
      61    H29     16.716772   24.108559   18.718399 H          1 MOL1         0.0794
      62    O15     14.934461   24.038004   19.801309 O.3        1 MOL1        -0.5486
      63    H30     14.460331   24.397854   19.020069 H          1 MOL1         0.3769
      64    C19     23.548002   22.603863   20.742722 C.3        1 MOL1         0.2972
      65    H31     24.561050   22.741121   20.343024 H          1 MOL1         0.0751
      66    O16     23.377597   21.304006   21.334377 O.3        1 MOL1        -0.3740
      67    C20     23.226505   23.660216   21.827978 C.3        1 MOL1         0.1003
      68    H32     23.310331   24.646630   21.353620 H          1 MOL1         0.0783
      69    O17     24.161532   23.580761   22.916738 O.3        1 MOL1        -0.5519
      70    H33     24.176959   22.638446   23.222793 H          1 MOL1         0.3769
      71    C21     21.774869   23.506448   22.352744 C.3        1 MOL1         0.1053
      72    H34     21.719668   22.586233   22.951456 H          1 MOL1         0.0783
      73    O18     21.476272   24.642330   23.170825 O.3        1 MOL1        -0.5519
      74    H35     22.216016   24.700044   23.814120 H          1 MOL1         0.3769
      75    C22     20.740988   23.388242   21.196516 C.3        1 MOL1         0.1018
      76    H36     20.566923   24.387355   20.777282 H          1 MOL1         0.0783
      77    C23     21.209577   22.429386   20.065922 C.3        1 MOL1         0.1043
      78    H37     21.171497   21.402731   20.451757 H          1 MOL1         0.0783
      79    O19     22.570490   22.748987   19.691032 O.3        1 MOL1        -0.3740
      80    C24     20.326915   22.453611   18.791238 C.3        1 MOL1         0.0138
      81    H38     19.521198   21.719594   18.915623 H          1 MOL1         0.0794
      82    H39     20.931123   22.112191   17.940215 H          1 MOL1         0.0794
      83    O20     19.769733   23.745050   18.511997 O.3        1 MOL1        -0.5486
      84    H40     19.185431   23.982133   19.266309 H          1 MOL1         0.3769
      85    C25     25.133023   17.667190   21.961285 C.3        1 MOL1         0.2972
      86    H41     25.779034   16.794459   22.121911 H          1 MOL1         0.0751
      87    O21     23.749286   17.288410   21.828144 O.3        1 MOL1        -0.3740
      88    C26     25.249806   18.632659   23.163278 C.3        1 MOL1         0.1003
      89    H42     26.290303   18.978602   23.215802 H          1 MOL1         0.0783
      90    O22     24.909209   17.951538   24.381087 O.3        1 MOL1        -0.5519
      91    H43     24.265738   17.242393   24.137656 H          1 MOL1         0.3769
      92    C27     24.341115   19.865802   22.958833 C.3        1 MOL1         0.1053
      93    H44     23.299957   19.524246   23.010227 H          1 MOL1         0.0783
      94    O23     24.584313   20.821283   23.996995 O.3        1 MOL1        -0.5519
      95    H45     24.562938   20.300375   24.830424 H          1 MOL1         0.3769
      96    C28     24.563083   20.527389   21.575933 C.3        1 MOL1         0.1018
      97    H46     25.465599   21.151006   21.624805 H          1 MOL1         0.0783
      98    C29     24.670132   19.501913   20.410368 C.3        1 MOL1         0.1043
      99    H47     23.657693   19.128922   20.212036 H          1 MOL1         0.0783
     100    O24     25.521897   18.383956   20.772129 O.3        1 MOL1        -0.3740
     101    C30     25.197572   20.110951   19.089285 C.3        1 MOL1         0.0138
     102    H48     24.420967   20.765919   18.671793 H          1 MOL1         0.0794
     103    H49     25.359243   19.298221   18.368390 H          1 MOL1         0.0794
     104    O25     26.407854   20.853139   19.282782 O.3        1 MOL1        -0.5486
     105    H50     26.725652   21.140970   18.399212 H          1 MOL1         0.3769
     106    C31     21.325710   14.023702   20.900944 C.3        1 MOL1         0.2972
     107    H51     20.938932   13.051049   20.571013 H          1 MOL1         0.0751
     108    O26     20.257092   14.962749   21.135372 O.3        1 MOL1        -0.3740
     109    C32     22.186340   13.878904   22.187404 C.3        1 MOL1         0.1003
     110    H52     23.029319   13.222165   21.936143 H          1 MOL1         0.0783
     111    O27     21.447962   13.287361   23.266873 O.3        1 MOL1        -0.5519
     112    H53     20.692713   13.896021   23.469271 H          1 MOL1         0.3769
     113    C33     22.766460   15.249635   22.614039 C.3        1 MOL1         0.1053
     114    H54     21.932178   15.895480   22.920309 H          1 MOL1         0.0783
     115    O28     23.669226   15.071901   23.711198 O.3        1 MOL1        -0.5519
     116    H55     23.205126   14.466668   24.331175 H          1 MOL1         0.3769
     117    C34     23.503525   15.927626   21.432536 C.3        1 MOL1         0.1018
     118    H56     24.435092   15.377817   21.244617 H          1 MOL1         0.0783
     119    C35     22.647467   15.937360   20.134484 C.3        1 MOL1         0.1043
     120    H57     21.788331   16.602785   20.289744 H          1 MOL1         0.0783
     121    O29     22.174997   14.590520   19.878236 O.3        1 MOL1        -0.3740
     122    C36     23.382617   16.446009   18.866625 C.3        1 MOL1         0.0138
     123    H58     23.224651   17.527897   18.782289 H          1 MOL1         0.0794
     124    H59     22.910986   15.991446   17.985203 H          1 MOL1         0.0794
     125    O30     24.787363   16.164507   18.869867 O.3        1 MOL1        -0.5486
     126    H60     25.208632   16.812378   19.481993 H          1 MOL1         0.3769
     127    C1      18.922926   19.426218   25.509668 C.2        1 MOL1         0.6075
     128    O1      18.083513   20.304509   25.580509 O.co2      1 MOL1        -0.6830
     129    O2      19.578790   19.040091   26.456728 O.co2      1 MOL1        -0.6830
     130    C2      19.172962   18.787554   24.147925 C.3        1 MOL1        -0.2050
     131    H1      18.227411   18.793527   23.595023 H          1 MOL1         0.0710
     132    H2      19.442574   17.739990   24.317292 H          1 MOL1         0.0710
     133    C3      20.293549   19.492939   23.339846 C.3        1 MOL1        -0.1947
     134    H3      20.041551   20.551112   23.194432 H          1 MOL1         0.0712
     135    H4      21.211887   19.477495   23.940931 H          1 MOL1         0.0712
     136    C4      20.574671   18.826302   21.973294 C.3        1 MOL1        -0.1921
     137    H5      20.794655   17.762419   22.124962 H          1 MOL1         0.0712
     138    H6      21.476574   19.272025   21.536259 H          1 MOL1         0.0712
     139    C5      19.411061   18.976223   20.972220 C.3        1 MOL1        -0.2936
     140    H7      18.512741   18.466903   21.337363 H          1 MOL1         0.0724
     141    H8      19.676218   18.535786   20.003094 H          1 MOL1         0.0724
     142    H9      19.161900   20.032484   20.813493 H          1 MOL1         0.0724
@<TRIPOS>BOND
    1     1     2    1
    2     1     3    1
    3     1     4    1
    4     4     5    1
    5     4     6    1
    6     6     7    1
    7     4     8    1
    8     8     9    1
    9     8    10    1
   10    10    11    1
   11     8    12    1
   12    12    13    1
   13    12    14    1
   14    14    15    1
   15     1    16    1
   16    14    16    1
   17    14    17    1
   18    17    18    1
   19    17    19    1
   20    17    20    1
   21    20    21    1
   22    22    23    1
   23    22    24    1
   24    22    25    1
   25    25    26    1
   26    25    27    1
   27    27    28    1
   28    25    29    1
   29    29    30    1
   30    29    31    1
   31    31    32    1
   32     3    33    1
   33    29    33    1
   34    33    34    1
   35    33    35    1
   36    35    36    1
   37    22    37    1
   38    35    37    1
   39    35    38    1
   40    38    39    1
   41    38    40    1
   42    38    41    1
   43    41    42    1
   44    43    44    1
   45    43    45    1
   46    43    46    1
   47    46    47    1
   48    46    48    1
   49    48    49    1
   50    46    50    1
   51    50    51    1
   52    50    52    1
   53    52    53    1
   54    24    54    1
   55    50    54    1
   56    54    55    1
   57    54    56    1
   58    56    57    1
   59    43    58    1
   60    56    58    1
   61    56    59    1
   62    59    60    1
   63    59    61    1
   64    59    62    1
   65    62    63    1
   66    64    65    1
   67    64    66    1
   68    64    67    1
   69    67    68    1
   70    67    69    1
   71    69    70    1
   72    67    71    1
   73    71    72    1
   74    71    73    1
   75    73    74    1
   76    45    75    1
   77    71    75    1
   78    75    76    1
   79    75    77    1
   80    77    78    1
   81    64    79    1
   82    77    79    1
   83    77    80    1
   84    80    81    1
   85    80    82    1
   86    80    83    1
   87    83    84    1
   88    85    86    1
   89    85    87    1
   90    85    88    1
   91    88    89    1
   92    88    90    1
   93    90    91    1
   94    88    92    1
   95    92    93    1
   96    92    94    1
   97    94    95    1
   98    66    96    1
   99    92    96    1
  100    96    97    1
  101    96    98    1
  102    98    99    1
  103    85   100    1
  104    98   100    1
  105    98   101    1
  106   101   102    1
  107   101   103    1
  108   101   104    1
  109   104   105    1
  110   106   107    1
  111    12   108    1
  112   106   108    1
  113   106   109    1
  114   109   110    1
  115   109   111    1
  116   111   112    1
  117   109   113    1
  118   113   114    1
  119   113   115    1
  120   115   116    1
  121    87   117    1
  122   113   117    1
  123   117   118    1
  124   117   119    1
  125   119   120    1
  126   106   121    1
  127   119   121    1
  128   119   122    1
  129   122   123    1
  130   122   124    1
  131   122   125    1
  132   125   126    1
  133   127   128    1
  134   127   129    2
  135   127   130    1
  136   130   131    1
  137   130   132    1
  138   130   133    1
  139   133   134    1
  140   133   135    1
  141   133   136    1
  142   136   137    1
  143   136   138    1
  144   136   139    1
  145   139   140    1
  146   139   141    1
  147   139   142    1
@<TRIPOS>SUBSTRUCTURE
       1 MOL1            1 RESIDUE      1      MOL     
       2 MOL1          142 RESIDUE      1      MOL     
@<SCITEGIC>MOL_PROPERTY
feprocess Rank
SciTegic.value.IntegerValue
5

@<SCITEGIC>MOL_PROPERTY
Conf_Id
SciTegic.value.IntegerValue
114

@<SCITEGIC>MOL_PROPERTY
Probability
SciTegic.value.DoubleValue
7.19

@<SCITEGIC>MOL_PROPERTY
G
SciTegic.value.DoubleValue
490.341

@<SCITEGIC>MOL_PROPERTY
E
SciTegic.value.DoubleValue
309.038

@<SCITEGIC>MOL_PROPERTY
-TS
SciTegic.value.DoubleValue
181.304

@<SCITEGIC>MOL_PROPERTY
U+W
SciTegic.value.DoubleValue
183.844

@<SCITEGIC>MOL_PROPERTY
U
SciTegic.value.DoubleValue
267.187

@<SCITEGIC>MOL_PROPERTY
W
SciTegic.value.DoubleValue
-83.344

@<SCITEGIC>MOL_PROPERTY
W(PB)
SciTegic.value.DoubleValue
-89.424

@<SCITEGIC>MOL_PROPERTY
W(SA)
SciTegic.value.DoubleValue
6.081

@<SCITEGIC>MOL_PROPERTY
Valence
SciTegic.value.DoubleValue
150.651

@<SCITEGIC>MOL_PROPERTY
Coulomb
SciTegic.value.DoubleValue
138.636

@<SCITEGIC>MOL_PROPERTY
VdW
SciTegic.value.DoubleValue
-22.099

@<SCITEGIC>MOL_PROPERTY
VdW6
SciTegic.value.DoubleValue
-177.038

@<SCITEGIC>MOL_PROPERTY
VdW12
SciTegic.value.DoubleValue
154.939

@<SCITEGIC>MOL_PROPERTY
Bond
SciTegic.value.DoubleValue
4.861

@<SCITEGIC>MOL_PROPERTY
Angle
SciTegic.value.DoubleValue
14.358

@<SCITEGIC>MOL_PROPERTY
Pdih
SciTegic.value.DoubleValue
131.432

@<SCITEGIC>MOL_PROPERTY
Idih
SciTegic.value.DoubleValue
0.000

@<SCITEGIC>MOL_PROPERTY
Tether
SciTegic.value.DoubleValue
0.000

@<TRIPOS>MOLECULE
CD_guest-s18_fast_vm2_rndm.mol2 : feprocess host+ligand conformer 6
         142         147           2
SMALL
USER_CHARGES
 
@<TRIPOS>ATOM
       1    C1      16.369899   15.302634   20.583867 C.3        1 MOL1         0.2972
       2    H1      15.338292   15.184742   20.228558 H          1 MOL1         0.0751
       3    O1      16.662584   16.682407   20.889379 O.3        1 MOL1        -0.3740
       4    C2      16.645087   14.399228   21.820704 C.3        1 MOL1         0.1003
       5    H2      16.503184   13.361476   21.492082 H          1 MOL1         0.0783
       6    O2      15.740053   14.660784   22.903100 O.3        1 MOL1        -0.5519
       7    H3      15.930935   15.580845   23.217767 H          1 MOL1         0.3769
       8    C3      18.113528   14.545742   22.289380 C.3        1 MOL1         0.1053
       9    H4      18.258550   15.570810   22.657836 H          1 MOL1         0.0783
      10    O3      18.383440   13.609603   23.338910 O.3        1 MOL1        -0.5519
      11    H5      17.618373   13.682080   23.951661 H          1 MOL1         0.3769
      12    C4      19.090452   14.306931   21.112441 C.3        1 MOL1         0.1018
      13    H6      19.084165   13.237252   20.865221 H          1 MOL1         0.0783
      14    C5      18.699798   15.126215   19.851527 C.3        1 MOL1         0.1043
      15    H7      18.854156   16.187424   20.077164 H          1 MOL1         0.0783
      16    O4      17.298651   14.894477   19.553229 O.3        1 MOL1        -0.3740
      17    C6      19.536299   14.817881   18.582335 C.3        1 MOL1         0.0138
      18    H8      20.394597   15.500538   18.558035 H          1 MOL1         0.0794
      19    H9      18.926527   15.048727   17.698699 H          1 MOL1         0.0794
      20    O5      19.999367   13.463575   18.519450 O.3        1 MOL1        -0.5486
      21    H10     20.762510   13.392682   19.139253 H          1 MOL1         0.3769
      22    C7      15.060692   20.354444   21.895962 C.3        1 MOL1         0.2972
      23    H11     14.442088   21.199973   22.222000 H          1 MOL1         0.0751
      24    O6      16.287137   20.799039   21.284960 O.3        1 MOL1        -0.3740
      25    C8      15.385596   19.440627   23.104987 C.3        1 MOL1         0.1003
      26    H12     14.427548   19.049772   23.470511 H          1 MOL1         0.0783
      27    O7      16.007596   20.181311   24.168506 O.3        1 MOL1        -0.5519
      28    H13     16.983487   20.246212   23.984581 H          1 MOL1         0.3769
      29    C9      16.245493   18.231639   22.664855 C.3        1 MOL1         0.1053
      30    H14     17.225343   18.610018   22.347184 H          1 MOL1         0.0783
      31    O8      16.403430   17.319832   23.758220 O.3        1 MOL1        -0.5519
      32    H15     17.095056   17.732954   24.344524 H          1 MOL1         0.3769
      33    C10     15.611791   17.488406   21.461464 C.3        1 MOL1         0.1018
      34    H16     14.772404   16.879974   21.822196 H          1 MOL1         0.0783
      35    C11     15.120379   18.457203   20.348421 C.3        1 MOL1         0.1043
      36    H17     16.006992   18.861188   19.843500 H          1 MOL1         0.0783
      37    O9      14.358288   19.552363   20.921623 O.3        1 MOL1        -0.3740
      38    C12     14.254927   17.769064   19.265980 C.3        1 MOL1         0.0138
      39    H18     14.904659   17.121844   18.661488 H          1 MOL1         0.0794
      40    H19     13.851536   18.541425   18.597506 H          1 MOL1         0.0794
      41    O10     13.190530   16.994906   19.833194 O.3        1 MOL1        -0.5486
      42    H20     12.639923   16.657685   19.093176 H          1 MOL1         0.3769
      43    C13     18.506875   24.116501   20.469575 C.3        1 MOL1         0.2972
      44    H21     18.982159   25.053074   20.151201 H          1 MOL1         0.0751
      45    O11     19.484137   23.155587   20.919976 O.3        1 MOL1        -0.3740
      46    C14     17.446048   24.367974   21.572003 C.3        1 MOL1         0.1003
      47    H22     16.662863   24.989663   21.118904 H          1 MOL1         0.0783
      48    O12     17.993594   25.071001   22.697553 O.3        1 MOL1        -0.5519
      49    H23     18.633740   24.452557   23.131923 H          1 MOL1         0.3769
      50    C15     16.787382   23.040508   22.023977 C.3        1 MOL1         0.1053
      51    H24     17.531205   22.461068   22.587970 H          1 MOL1         0.0783
      52    O13     15.671526   23.353413   22.864699 O.3        1 MOL1        -0.5519
      53    H25     16.030279   23.934887   23.569398 H          1 MOL1         0.3769
      54    C16     16.318690   22.165075   20.827096 C.3        1 MOL1         0.1018
      55    H26     15.326717   22.504191   20.504232 H          1 MOL1         0.0783
      56    C17     17.289151   22.183265   19.610157 C.3        1 MOL1         0.1043
      57    H27     18.134408   21.527158   19.844919 H          1 MOL1         0.0783
      58    O14     17.794166   23.520163   19.366042 O.3        1 MOL1        -0.3740
      59    C18     16.666532   21.634835   18.302633 C.3        1 MOL1         0.0138
      60    H28     16.560708   20.546323   18.396238 H          1 MOL1         0.0794
      61    H29     17.371070   21.819043   17.480830 H          1 MOL1         0.0794
      62    O15     15.394925   22.222011   17.999123 O.3        1 MOL1        -0.5486
      63    H30     14.736887   21.840867   18.619144 H          1 MOL1         0.3769
      64    C19     23.245200   22.511575   22.460346 C.3        1 MOL1         0.2972
      65    H31     24.244591   22.570241   22.910103 H          1 MOL1         0.0751
      66    O16     22.981961   21.193385   21.937257 O.3        1 MOL1        -0.3740
      67    C20     22.167594   22.829444   23.525623 C.3        1 MOL1         0.1003
      68    H32     22.328077   23.858486   23.871617 H          1 MOL1         0.0783
      69    O17     22.300835   21.929107   24.635485 O.3        1 MOL1        -0.5519
      70    H33     22.265011   21.026304   24.257990 H          1 MOL1         0.3769
      71    C21     20.754970   22.745135   22.897748 C.3        1 MOL1         0.1053
      72    H34     20.585548   21.709688   22.581083 H          1 MOL1         0.0783
      73    O18     19.753697   23.106096   23.854364 O.3        1 MOL1        -0.5519
      74    H35     19.383366   22.233028   24.158543 H          1 MOL1         0.3769
      75    C22     20.640585   23.633035   21.634291 C.3        1 MOL1         0.1018
      76    H36     20.546470   24.685106   21.933192 H          1 MOL1         0.0783
      77    C23     21.845716   23.446820   20.670300 C.3        1 MOL1         0.1043
      78    H37     21.723983   22.468329   20.194287 H          1 MOL1         0.0783
      79    O19     23.110247   23.464864   21.383304 O.3        1 MOL1        -0.3740
      80    C24     21.900133   24.501401   19.539513 C.3        1 MOL1         0.0138
      81    H38     21.066667   24.314257   18.848968 H          1 MOL1         0.0794
      82    H39     22.830244   24.362348   18.972246 H          1 MOL1         0.0794
      83    O20     21.820366   25.839183   20.046416 O.3        1 MOL1        -0.5486
      84    H40     21.935444   26.452890   19.288324 H          1 MOL1         0.3769
      85    C25     24.923013   17.680471   20.885384 C.3        1 MOL1         0.2972
      86    H41     25.589847   16.902715   20.491257 H          1 MOL1         0.0751
      87    O21     23.676015   17.134014   21.351821 O.3        1 MOL1        -0.3740
      88    C26     25.575825   18.434947   22.070167 C.3        1 MOL1         0.1003
      89    H42     26.489550   18.910639   21.690837 H          1 MOL1         0.0783
      90    O22     25.921243   17.531216   23.132589 O.3        1 MOL1        -0.5519
      91    H43     25.111991   16.999102   23.342437 H          1 MOL1         0.3769
      92    C27     24.637502   19.551644   22.595670 C.3        1 MOL1         0.1053
      93    H44     23.768505   19.072799   23.067799 H          1 MOL1         0.0783
      94    O23     25.348509   20.330283   23.562427 O.3        1 MOL1        -0.5519
      95    H45     25.769495   19.675761   24.162295 H          1 MOL1         0.3769
      96    C28     24.120371   20.459949   21.445602 C.3        1 MOL1         0.1018
      97    H46     24.931534   21.130793   21.134522 H          1 MOL1         0.0783
      98    C29     23.629190   19.641704   20.216965 C.3        1 MOL1         0.1043
      99    H47     22.700376   19.128443   20.494924 H          1 MOL1         0.0783
     100    O24     24.628751   18.655918   19.862402 O.3        1 MOL1        -0.3740
     101    C30     23.304575   20.490453   18.960662 C.3        1 MOL1         0.0138
     102    H48     22.248661   20.784704   19.006196 H          1 MOL1         0.0794
     103    H49     23.411800   19.855050   18.071487 H          1 MOL1         0.0794
     104    O25     24.131438   21.655441   18.834945 O.3        1 MOL1        -0.5486
     105    H50     23.951552   22.230000   19.612906 H          1 MOL1         0.3769
     106    C31     21.403835   13.744636   21.657231 C.3        1 MOL1         0.2972
     107    H51     20.975091   12.736843   21.729795 H          1 MOL1         0.0751
     108    O26     20.382161   14.754337   21.557069 O.3        1 MOL1        -0.3740
     109    C32     22.246865   14.048989   22.917095 C.3        1 MOL1         0.1003
     110    H52     23.074518   13.328535   22.949173 H          1 MOL1         0.0783
     111    O27     21.443632   13.908774   24.099727 O.3        1 MOL1        -0.5519
     112    H53     20.512905   14.114279   23.837449 H          1 MOL1         0.3769
     113    C33     22.847094   15.470701   22.834883 C.3        1 MOL1         0.1053
     114    H54     22.018528   16.187209   22.898428 H          1 MOL1         0.0783
     115    O28     23.743576   15.677503   23.931559 O.3        1 MOL1        -0.5519
     116    H55     23.255362   15.353200   24.721015 H          1 MOL1         0.3769
     117    C34     23.589161   15.706317   21.495250 C.3        1 MOL1         0.1018
     118    H56     24.578534   15.233463   21.552793 H          1 MOL1         0.0783
     119    C35     22.805197   15.181678   20.257431 C.3        1 MOL1         0.1043
     120    H57     21.976830   15.878064   20.075308 H          1 MOL1         0.0783
     121    O29     22.262952   13.857996   20.504427 O.3        1 MOL1        -0.3740
     122    C36     23.650131   15.131847   18.962250 C.3        1 MOL1         0.0138
     123    H58     23.839604   16.161359   18.629468 H          1 MOL1         0.0794
     124    H59     23.060370   14.639422   18.177387 H          1 MOL1         0.0794
     125    O30     24.893616   14.446492   19.155470 O.3        1 MOL1        -0.5486
     126    H60     25.340192   14.387506   18.282798 H          1 MOL1         0.3769
     127    C1      19.241447   19.290398   24.115216 C.2        1 MOL1         0.6075
     128    O1      18.848838   20.432410   23.961660 O.co2      1 MOL1        -0.6830
     129    O2      18.677645   18.487628   24.832305 O.co2      1 MOL1        -0.6830
     130    C2      20.457007   18.806538   23.324314 C.3        1 MOL1        -0.2050
     131    H1      20.908576   17.988897   23.897614 H          1 MOL1         0.0710
     132    H2      21.198245   19.609129   23.291114 H          1 MOL1         0.0710
     133    C3      20.135287   18.308343   21.889677 C.3        1 MOL1        -0.1947
     134    H3      21.000483   17.760115   21.499195 H          1 MOL1         0.0712
     135    H4      19.304883   17.592871   21.933247 H          1 MOL1         0.0712
     136    C4      19.793107   19.458398   20.919165 C.3        1 MOL1        -0.1921
     137    H5      20.624997   20.171431   20.884977 H          1 MOL1         0.0712
     138    H6      18.923505   20.010130   21.297751 H          1 MOL1         0.0712
     139    C5      19.504233   18.947830   19.493520 C.3        1 MOL1        -0.2936
     140    H7      20.330783   18.328969   19.121797 H          1 MOL1         0.0724
     141    H8      19.373369   19.788238   18.800906 H          1 MOL1         0.0724
     142    H9      18.584521   18.350277   19.474650 H          1 MOL1         0.0724
@<TRIPOS>BOND
    1     1     2    1
    2     1     3    1
    3     1     4    1
    4     4     5    1
    5     4     6    1
    6     6     7    1
    7     4     8    1
    8     8     9    1
    9     8    10    1
   10    10    11    1
   11     8    12    1
   12    12    13    1
   13    12    14    1
   14    14    15    1
   15     1    16    1
   16    14    16    1
   17    14    17    1
   18    17    18    1
   19    17    19    1
   20    17    20    1
   21    20    21    1
   22    22    23    1
   23    22    24    1
   24    22    25    1
   25    25    26    1
   26    25    27    1
   27    27    28    1
   28    25    29    1
   29    29    30    1
   30    29    31    1
   31    31    32    1
   32     3    33    1
   33    29    33    1
   34    33    34    1
   35    33    35    1
   36    35    36    1
   37    22    37    1
   38    35    37    1
   39    35    38    1
   40    38    39    1
   41    38    40    1
   42    38    41    1
   43    41    42    1
   44    43    44    1
   45    43    45    1
   46    43    46    1
   47    46    47    1
   48    46    48    1
   49    48    49    1
   50    46    50    1
   51    50    51    1
   52    50    52    1
   53    52    53    1
   54    24    54    1
   55    50    54    1
   56    54    55    1
   57    54    56    1
   58    56    57    1
   59    43    58    1
   60    56    58    1
   61    56    59    1
   62    59    60    1
   63    59    61    1
   64    59    62    1
   65    62    63    1
   66    64    65    1
   67    64    66    1
   68    64    67    1
   69    67    68    1
   70    67    69    1
   71    69    70    1
   72    67    71    1
   73    71    72    1
   74    71    73    1
   75    73    74    1
   76    45    75    1
   77    71    75    1
   78    75    76    1
   79    75    77    1
   80    77    78    1
   81    64    79    1
   82    77    79    1
   83    77    80    1
   84    80    81    1
   85    80    82    1
   86    80    83    1
   87    83    84    1
   88    85    86    1
   89    85    87    1
   90    85    88    1
   91    88    89    1
   92    88    90    1
   93    90    91    1
   94    88    92    1
   95    92    93    1
   96    92    94    1
   97    94    95    1
   98    66    96    1
   99    92    96    1
  100    96    97    1
  101    96    98    1
  102    98    99    1
  103    85   100    1
  104    98   100    1
  105    98   101    1
  106   101   102    1
  107   101   103    1
  108   101   104    1
  109   104   105    1
  110   106   107    1
  111    12   108    1
  112   106   108    1
  113   106   109    1
  114   109   110    1
  115   109   111    1
  116   111   112    1
  117   109   113    1
  118   113   114    1
  119   113   115    1
  120   115   116    1
  121    87   117    1
  122   113   117    1
  123   117   118    1
  124   117   119    1
  125   119   120    1
  126   106   121    1
  127   119   121    1
  128   119   122    1
  129   122   123    1
  130   122   124    1
  131   122   125    1
  132   125   126    1
  133   127   128    1
  134   127   129    2
  135   127   130    1
  136   130   131    1
  137   130   132    1
  138   130   133    1
  139   133   134    1
  140   133   135    1
  141   133   136    1
  142   136   137    1
  143   136   138    1
  144   136   139    1
  145   139   140    1
  146   139   141    1
  147   139   142    1
@<TRIPOS>SUBSTRUCTURE
       1 MOL1            1 RESIDUE      1      MOL     
       2 MOL1          142 RESIDUE      1      MOL     
@<SCITEGIC>MOL_PROPERTY
feprocess Rank
SciTegic.value.IntegerValue
6

@<SCITEGIC>MOL_PROPERTY
Conf_Id
SciTegic.value.IntegerValue
506

@<SCITEGIC>MOL_PROPERTY
Probability
SciTegic.value.DoubleValue
6.45

@<SCITEGIC>MOL_PROPERTY
G
SciTegic.value.DoubleValue
490.406

@<SCITEGIC>MOL_PROPERTY
E
SciTegic.value.DoubleValue
306.734

@<SCITEGIC>MOL_PROPERTY
-TS
SciTegic.value.DoubleValue
183.672

@<SCITEGIC>MOL_PROPERTY
U+W
SciTegic.value.DoubleValue
181.540

@<SCITEGIC>MOL_PROPERTY
U
SciTegic.value.DoubleValue
254.158

@<SCITEGIC>MOL_PROPERTY
W
SciTegic.value.DoubleValue
-72.618

@<SCITEGIC>MOL_PROPERTY
W(PB)
SciTegic.value.DoubleValue
-78.569

@<SCITEGIC>MOL_PROPERTY
W(SA)
SciTegic.value.DoubleValue
5.951

@<SCITEGIC>MOL_PROPERTY
Valence
SciTegic.value.DoubleValue
151.115

@<SCITEGIC>MOL_PROPERTY
Coulomb
SciTegic.value.DoubleValue
128.841

@<SCITEGIC>MOL_PROPERTY
VdW
SciTegic.value.DoubleValue
-25.798

@<SCITEGIC>MOL_PROPERTY
VdW6
SciTegic.value.DoubleValue
-186.208

@<SCITEGIC>MOL_PROPERTY
VdW12
SciTegic.value.DoubleValue
160.411

@<SCITEGIC>MOL_PROPERTY
Bond
SciTegic.value.DoubleValue
5.078

@<SCITEGIC>MOL_PROPERTY
Angle
SciTegic.value.DoubleValue
15.418

@<SCITEGIC>MOL_PROPERTY
Pdih
SciTegic.value.DoubleValue
130.612

@<SCITEGIC>MOL_PROPERTY
Idih
SciTegic.value.DoubleValue
0.007

@<SCITEGIC>MOL_PROPERTY
Tether
SciTegic.value.DoubleValue
0.000

@<TRIPOS>MOLECULE
CD_guest-s18_fast_vm2_rndm.mol2 : feprocess host+ligand conformer 7
         142         147           2
SMALL
USER_CHARGES
 
@<TRIPOS>ATOM
       1    C1      16.284351   15.226779   20.402940 C.3        1 MOL1         0.2972
       2    H1      15.285071   15.135588   19.958050 H          1 MOL1         0.0751
       3    O1      16.537147   16.564568   20.881059 O.3        1 MOL1        -0.3740
       4    C2      16.475958   14.230074   21.574035 C.3        1 MOL1         0.1003
       5    H2      16.405210   13.218447   21.153565 H          1 MOL1         0.0783
       6    O2      15.462752   14.386112   22.578669 O.3        1 MOL1        -0.5519
       7    H3      15.515759   15.320464   22.903827 H          1 MOL1         0.3769
       8    C3      17.888061   14.392519   22.188354 C.3        1 MOL1         0.1053
       9    H4      17.942957   15.381953   22.663697 H          1 MOL1         0.0783
      10    O3      18.095326   13.371820   23.169332 O.3        1 MOL1        -0.5519
      11    H5      17.275515   13.363045   23.711021 H          1 MOL1         0.3769
      12    C4      18.994505   14.314695   21.102407 C.3        1 MOL1         0.1018
      13    H6      19.121596   13.262151   20.817801 H          1 MOL1         0.0783
      14    C5      18.663639   15.153203   19.830919 C.3        1 MOL1         0.1043
      15    H7      18.771477   16.213183   20.082843 H          1 MOL1         0.0783
      16    O4      17.295164   14.905786   19.423006 O.3        1 MOL1        -0.3740
      17    C6      19.587620   14.895293   18.610912 C.3        1 MOL1         0.0138
      18    H8      20.397237   15.634400   18.623100 H          1 MOL1         0.0794
      19    H9      19.013241   15.082589   17.693816 H          1 MOL1         0.0794
      20    O5      20.139167   13.572822   18.578274 O.3        1 MOL1        -0.5486
      21    H10     20.796799   13.511337   19.310261 H          1 MOL1         0.3769
      22    C7      14.824958   20.245276   21.631293 C.3        1 MOL1         0.2972
      23    H11     14.165031   21.103045   21.815549 H          1 MOL1         0.0751
      24    O6      16.197083   20.651299   21.490250 O.3        1 MOL1        -0.3740
      25    C8      14.745786   19.252249   22.814150 C.3        1 MOL1         0.1003
      26    H12     13.711247   18.889985   22.874515 H          1 MOL1         0.0783
      27    O7      15.092794   19.907253   24.045182 O.3        1 MOL1        -0.5519
      28    H13     15.544521   20.751521   23.800347 H          1 MOL1         0.3769
      29    C9      15.668182   18.035469   22.568232 C.3        1 MOL1         0.1053
      30    H14     16.708691   18.385899   22.586392 H          1 MOL1         0.0783
      31    O8      15.465688   17.081454   23.614860 O.3        1 MOL1        -0.5519
      32    H15     15.486124   17.612784   24.442458 H          1 MOL1         0.3769
      33    C10     15.395474   17.388396   21.185141 C.3        1 MOL1         0.1018
      34    H16     14.467563   16.804095   21.243885 H          1 MOL1         0.0783
      35    C11     15.297925   18.440106   20.043091 C.3        1 MOL1         0.1043
      36    H17     16.311448   18.817249   19.858200 H          1 MOL1         0.0783
      37    O9      14.442797   19.549207   20.426480 O.3        1 MOL1        -0.3740
      38    C12     14.777385   17.856799   18.707989 C.3        1 MOL1         0.0138
      39    H18     15.551922   17.199407   18.290060 H          1 MOL1         0.0794
      40    H19     14.631649   18.681491   17.997362 H          1 MOL1         0.0794
      41    O10     13.558103   17.123462   18.879024 O.3        1 MOL1        -0.5486
      42    H20     13.247682   16.849644   17.988447 H          1 MOL1         0.3769
      43    C13     18.526656   24.064508   21.008776 C.3        1 MOL1         0.2972
      44    H21     18.914718   25.058334   20.750794 H          1 MOL1         0.0751
      45    O11     19.564387   23.188407   21.487240 O.3        1 MOL1        -0.3740
      46    C14     17.449828   24.153969   22.122268 C.3        1 MOL1         0.1003
      47    H22     16.624095   24.763970   21.733600 H          1 MOL1         0.0783
      48    O12     17.976295   24.774362   23.306025 O.3        1 MOL1        -0.5519
      49    H23     18.845347   24.341580   23.505859 H          1 MOL1         0.3769
      50    C15     16.892354   22.745404   22.450210 C.3        1 MOL1         0.1053
      51    H24     17.701505   22.148454   22.894203 H          1 MOL1         0.0783
      52    O13     15.809604   22.857422   23.379727 O.3        1 MOL1        -0.5519
      53    H25     16.118329   23.503433   24.053954 H          1 MOL1         0.3769
      54    C16     16.416802   22.031454   21.160578 C.3        1 MOL1         0.1018
      55    H26     15.501303   22.519631   20.801235 H          1 MOL1         0.0783
      56    C17     17.489539   22.074354   20.038824 C.3        1 MOL1         0.1043
      57    H27     18.348438   21.470710   20.356429 H          1 MOL1         0.0783
      58    O14     17.916825   23.445787   19.852353 O.3        1 MOL1        -0.3740
      59    C18     17.019640   21.498468   18.677215 C.3        1 MOL1         0.0138
      60    H28     17.261056   20.428608   18.654110 H          1 MOL1         0.0794
      61    H29     17.603508   21.971087   17.876281 H          1 MOL1         0.0794
      62    O15     15.617588   21.676288   18.437097 O.3        1 MOL1        -0.5486
      63    H30     15.137986   21.079068   19.056910 H          1 MOL1         0.3769
      64    C19     23.623728   22.759262   22.005709 C.3        1 MOL1         0.2972
      65    H31     24.705527   22.887891   22.138661 H          1 MOL1         0.0751
      66    O16     23.275501   21.368042   21.871485 O.3        1 MOL1        -0.3740
      67    C20     22.878441   23.354087   23.225757 C.3        1 MOL1         0.1003
      68    H32     23.115873   24.425273   23.256784 H          1 MOL1         0.0783
      69    O17     23.323509   22.741781   24.445851 O.3        1 MOL1        -0.5519
      70    H33     22.849614   21.866885   24.517333 H          1 MOL1         0.3769
      71    C21     21.347842   23.206785   23.063482 C.3        1 MOL1         0.1053
      72    H34     21.100462   22.138341   23.103869 H          1 MOL1         0.0783
      73    O18     20.681128   23.895129   24.127476 O.3        1 MOL1        -0.5519
      74    H35     21.104803   23.565138   24.950702 H          1 MOL1         0.3769
      75    C22     20.867395   23.758704   21.699665 C.3        1 MOL1         0.1018
      76    H36     20.839575   24.855096   21.752308 H          1 MOL1         0.0783
      77    C23     21.757065   23.293834   20.513187 C.3        1 MOL1         0.1043
      78    H37     21.541902   22.231266   20.347261 H          1 MOL1         0.0783
      79    O19     23.167000   23.450258   20.823725 O.3        1 MOL1        -0.3740
      80    C24     21.460768   24.037283   19.188850 C.3        1 MOL1         0.0138
      81    H38     20.478073   23.714294   18.819653 H          1 MOL1         0.0794
      82    H39     22.205232   23.733800   18.440577 H          1 MOL1         0.0794
      83    O20     21.473382   25.460437   19.355969 O.3        1 MOL1        -0.5486
      84    H40     21.343561   25.865491   18.470875 H          1 MOL1         0.3769
      85    C25     24.871152   17.676592   20.800375 C.3        1 MOL1         0.2972
      86    H41     25.476516   16.851314   20.404057 H          1 MOL1         0.0751
      87    O21     23.574917   17.220321   21.236902 O.3        1 MOL1        -0.3740
      88    C26     25.588263   18.383874   21.981623 C.3        1 MOL1         0.1003
      89    H42     26.519381   18.809831   21.586677 H          1 MOL1         0.0783
      90    O22     25.916870   17.443490   23.015693 O.3        1 MOL1        -0.5519
      91    H43     25.062352   17.108850   23.385433 H          1 MOL1         0.3769
      92    C27     24.720989   19.558274   22.513932 C.3        1 MOL1         0.1053
      93    H44     23.810056   19.138240   22.963283 H          1 MOL1         0.0783
      94    O23     25.438618   20.319336   23.493460 O.3        1 MOL1        -0.5519
      95    H45     24.769107   20.887263   23.937053 H          1 MOL1         0.3769
      96    C28     24.307197   20.505094   21.355629 C.3        1 MOL1         0.1018
      97    H46     25.194524   21.071432   21.043707 H          1 MOL1         0.0783
      98    C29     23.743006   19.739375   20.123823 C.3        1 MOL1         0.1043
      99    H47     22.770628   19.312563   20.394877 H          1 MOL1         0.0783
     100    O24     24.656386   18.669829   19.774353 O.3        1 MOL1        -0.3740
     101    C30     23.508001   20.605230   18.858439 C.3        1 MOL1         0.0138
     102    H48     22.477709   20.979301   18.877547 H          1 MOL1         0.0794
     103    H49     23.586473   19.957672   17.974993 H          1 MOL1         0.0794
     104    O25     24.420022   21.704017   18.740593 O.3        1 MOL1        -0.5486
     105    H50     24.153487   22.375229   19.412052 H          1 MOL1         0.3769
     106    C31     21.235314   13.914398   21.987013 C.3        1 MOL1         0.2972
     107    H51     20.821583   12.920163   22.200470 H          1 MOL1         0.0751
     108    O26     20.188728   14.862468   21.695262 O.3        1 MOL1        -0.3740
     109    C32     22.024791   14.424767   23.217090 C.3        1 MOL1         0.1003
     110    H52     22.848577   13.723813   23.402951 H          1 MOL1         0.0783
     111    O27     21.158724   14.455315   24.361327 O.3        1 MOL1        -0.5519
     112    H53     20.311540   14.844856   24.052302 H          1 MOL1         0.3769
     113    C33     22.636177   15.819518   22.936433 C.3        1 MOL1         0.1053
     114    H54     21.808840   16.533998   22.843826 H          1 MOL1         0.0783
     115    O28     23.492548   16.215616   24.013460 O.3        1 MOL1        -0.5519
     116    H55     22.938343   16.813558   24.586377 H          1 MOL1         0.3769
     117    C34     23.439473   15.835508   21.610440 C.3        1 MOL1         0.1018
     118    H56     24.411971   15.353120   21.776121 H          1 MOL1         0.0783
     119    C35     22.683143   15.144329   20.442626 C.3        1 MOL1         0.1043
     120    H57     21.862887   15.812644   20.155673 H          1 MOL1         0.0783
     121    O29     22.130609   13.867642   20.856175 O.3        1 MOL1        -0.3740
     122    C36     23.555394   14.919249   19.184342 C.3        1 MOL1         0.0138
     123    H58     23.760806   15.895028   18.723619 H          1 MOL1         0.0794
     124    H59     22.979902   14.330997   18.457055 H          1 MOL1         0.0794
     125    O30     24.788537   14.259091   19.494944 O.3        1 MOL1        -0.5486
     126    H60     25.252234   14.079216   18.648165 H          1 MOL1         0.3769
     127    C1      21.455978   19.259944   24.580616 C.2        1 MOL1         0.6075
     128    O1      21.921829   18.249550   25.071047 O.co2      1 MOL1        -0.6830
     129    O2      21.946490   20.364104   24.715609 O.co2      1 MOL1        -0.6830
     130    C2      20.222408   19.119328   23.692852 C.3        1 MOL1        -0.2050
     131    H1      19.511547   19.909447   23.961498 H          1 MOL1         0.0710
     132    H2      19.746395   18.159824   23.928634 H          1 MOL1         0.0710
     133    C3      20.554546   19.189632   22.182674 C.3        1 MOL1        -0.1947
     134    H3      20.900990   20.198457   21.929882 H          1 MOL1         0.0712
     135    H4      21.381889   18.506140   21.967524 H          1 MOL1         0.0712
     136    C4      19.347828   18.819121   21.303398 C.3        1 MOL1        -0.1921
     137    H5      18.523616   19.510768   21.507521 H          1 MOL1         0.0712
     138    H6      18.994431   17.817292   21.577760 H          1 MOL1         0.0712
     139    C5      19.706764   18.857139   19.804161 C.3        1 MOL1        -0.2936
     140    H7      20.029751   19.862048   19.504165 H          1 MOL1         0.0724
     141    H8      18.839966   18.577973   19.192270 H          1 MOL1         0.0724
     142    H9      20.520877   18.155501   19.581370 H          1 MOL1         0.0724
@<TRIPOS>BOND
    1     1     2    1
    2     1     3    1
    3     1     4    1
    4     4     5    1
    5     4     6    1
    6     6     7    1
    7     4     8    1
    8     8     9    1
    9     8    10    1
   10    10    11    1
   11     8    12    1
   12    12    13    1
   13    12    14    1
   14    14    15    1
   15     1    16    1
   16    14    16    1
   17    14    17    1
   18    17    18    1
   19    17    19    1
   20    17    20    1
   21    20    21    1
   22    22    23    1
   23    22    24    1
   24    22    25    1
   25    25    26    1
   26    25    27    1
   27    27    28    1
   28    25    29    1
   29    29    30    1
   30    29    31    1
   31    31    32    1
   32     3    33    1
   33    29    33    1
   34    33    34    1
   35    33    35    1
   36    35    36    1
   37    22    37    1
   38    35    37    1
   39    35    38    1
   40    38    39    1
   41    38    40    1
   42    38    41    1
   43    41    42    1
   44    43    44    1
   45    43    45    1
   46    43    46    1
   47    46    47    1
   48    46    48    1
   49    48    49    1
   50    46    50    1
   51    50    51    1
   52    50    52    1
   53    52    53    1
   54    24    54    1
   55    50    54    1
   56    54    55    1
   57    54    56    1
   58    56    57    1
   59    43    58    1
   60    56    58    1
   61    56    59    1
   62    59    60    1
   63    59    61    1
   64    59    62    1
   65    62    63    1
   66    64    65    1
   67    64    66    1
   68    64    67    1
   69    67    68    1
   70    67    69    1
   71    69    70    1
   72    67    71    1
   73    71    72    1
   74    71    73    1
   75    73    74    1
   76    45    75    1
   77    71    75    1
   78    75    76    1
   79    75    77    1
   80    77    78    1
   81    64    79    1
   82    77    79    1
   83    77    80    1
   84    80    81    1
   85    80    82    1
   86    80    83    1
   87    83    84    1
   88    85    86    1
   89    85    87    1
   90    85    88    1
   91    88    89    1
   92    88    90    1
   93    90    91    1
   94    88    92    1
   95    92    93    1
   96    92    94    1
   97    94    95    1
   98    66    96    1
   99    92    96    1
  100    96    97    1
  101    96    98    1
  102    98    99    1
  103    85   100    1
  104    98   100    1
  105    98   101    1
  106   101   102    1
  107   101   103    1
  108   101   104    1
  109   104   105    1
  110   106   107    1
  111    12   108    1
  112   106   108    1
  113   106   109    1
  114   109   110    1
  115   109   111    1
  116   111   112    1
  117   109   113    1
  118   113   114    1
  119   113   115    1
  120   115   116    1
  121    87   117    1
  122   113   117    1
  123   117   118    1
  124   117   119    1
  125   119   120    1
  126   106   121    1
  127   119   121    1
  128   119   122    1
  129   122   123    1
  130   122   124    1
  131   122   125    1
  132   125   126    1
  133   127   128    1
  134   127   129    2
  135   127   130    1
  136   130   131    1
  137   130   132    1
  138   130   133    1
  139   133   134    1
  140   133   135    1
  141   133   136    1
  142   136   137    1
  143   136   138    1
  144   136   139    1
  145   139   140    1
  146   139   141    1
  147   139   142    1
@<TRIPOS>SUBSTRUCTURE
       1 MOL1            1 RESIDUE      1      MOL     
       2 MOL1          142 RESIDUE      1      MOL     
@<SCITEGIC>MOL_PROPERTY
feprocess Rank
SciTegic.value.IntegerValue
7

@<SCITEGIC>MOL_PROPERTY
Conf_Id
SciTegic.value.IntegerValue
831

@<SCITEGIC>MOL_PROPERTY
Probability
SciTegic.value.DoubleValue
5.32

@<SCITEGIC>MOL_PROPERTY
G
SciTegic.value.DoubleValue
490.521

@<SCITEGIC>MOL_PROPERTY
E
SciTegic.value.DoubleValue
309.039

@<SCITEGIC>MOL_PROPERTY
-TS
SciTegic.value.DoubleValue
181.483

@<SCITEGIC>MOL_PROPERTY
U+W
SciTegic.value.DoubleValue
183.845

@<SCITEGIC>MOL_PROPERTY
U
SciTegic.value.DoubleValue
259.452

@<SCITEGIC>MOL_PROPERTY
W
SciTegic.value.DoubleValue
-75.607

@<SCITEGIC>MOL_PROPERTY
W(PB)
SciTegic.value.DoubleValue
-81.521

@<SCITEGIC>MOL_PROPERTY
W(SA)
SciTegic.value.DoubleValue
5.913

@<SCITEGIC>MOL_PROPERTY
Valence
SciTegic.value.DoubleValue
152.556

@<SCITEGIC>MOL_PROPERTY
Coulomb
SciTegic.value.DoubleValue
131.226

@<SCITEGIC>MOL_PROPERTY
VdW
SciTegic.value.DoubleValue
-24.330

@<SCITEGIC>MOL_PROPERTY
VdW6
SciTegic.value.DoubleValue
-181.254

@<SCITEGIC>MOL_PROPERTY
VdW12
SciTegic.value.DoubleValue
156.924

@<SCITEGIC>MOL_PROPERTY
Bond
SciTegic.value.DoubleValue
4.936

@<SCITEGIC>MOL_PROPERTY
Angle
SciTegic.value.DoubleValue
13.536

@<SCITEGIC>MOL_PROPERTY
Pdih
SciTegic.value.DoubleValue
134.078

@<SCITEGIC>MOL_PROPERTY
Idih
SciTegic.value.DoubleValue
0.006

@<SCITEGIC>MOL_PROPERTY
Tether
SciTegic.value.DoubleValue
0.000

@<TRIPOS>MOLECULE
CD_guest-s18_fast_vm2_rndm.mol2 : feprocess host+ligand conformer 8
         142         147           2
SMALL
USER_CHARGES
 
@<TRIPOS>ATOM
       1    C1      16.205073   15.164858   21.238751 C.3        1 MOL1         0.2972
       2    H1      15.160889   14.906596   21.021177 H          1 MOL1         0.0751
       3    O1      16.351126   16.562397   21.552416 O.3        1 MOL1        -0.3740
       4    C2      16.695064   14.374197   22.477766 C.3        1 MOL1         0.1003
       5    H2      16.597442   13.304312   22.252179 H          1 MOL1         0.0783
       6    O2      15.888303   14.697621   23.621669 O.3        1 MOL1        -0.5519
       7    H3      15.630626   15.647035   23.524753 H          1 MOL1         0.3769
       8    C3      18.185903   14.672532   22.768457 C.3        1 MOL1         0.1053
       9    H4      18.269599   15.724567   23.071035 H          1 MOL1         0.0783
      10    O3      18.643518   13.825468   23.826642 O.3        1 MOL1        -0.5519
      11    H5      17.924749   13.846635   24.497895 H          1 MOL1         0.3769
      12    C4      19.041410   14.464126   21.494308 C.3        1 MOL1         0.1018
      13    H6      19.085672   13.392597   21.258821 H          1 MOL1         0.0783
      14    C5      18.450564   15.229691   20.281535 C.3        1 MOL1         0.1043
      15    H7      18.511378   16.305176   20.493628 H          1 MOL1         0.0783
      16    O4      17.060371   14.851409   20.115405 O.3        1 MOL1        -0.3740
      17    C6      19.210577   14.992456   18.950333 C.3        1 MOL1         0.0138
      18    H8      20.013071   15.737993   18.876636 H          1 MOL1         0.0794
      19    H9      18.524950   15.179160   18.113262 H          1 MOL1         0.0794
      20    O5      19.769825   13.676721   18.846060 O.3        1 MOL1        -0.5486
      21    H10     20.479402   13.607502   19.524685 H          1 MOL1         0.3769
      22    C7      14.688640   20.301561   20.758279 C.3        1 MOL1         0.2972
      23    H11     14.038326   21.124290   20.434452 H          1 MOL1         0.0751
      24    O6      15.950396   20.780009   21.262824 O.3        1 MOL1        -0.3740
      25    C8      14.023282   19.500495   21.905060 C.3        1 MOL1         0.1003
      26    H12     13.067473   19.112728   21.529542 H          1 MOL1         0.0783
      27    O7      13.782299   20.351576   23.038190 O.3        1 MOL1        -0.5519
      28    H13     14.578857   20.930957   23.139941 H          1 MOL1         0.3769
      29    C9      14.905340   18.294541   22.315568 C.3        1 MOL1         0.1053
      30    H14     15.821154   18.684237   22.781910 H          1 MOL1         0.0783
      31    O8      14.196055   17.478070   23.254279 O.3        1 MOL1        -0.5519
      32    H15     13.827101   18.107044   23.913271 H          1 MOL1         0.3769
      33    C10     15.316408   17.446683   21.085616 C.3        1 MOL1         0.1018
      34    H16     14.433085   16.899286   20.731533 H          1 MOL1         0.0783
      35    C11     15.882069   18.331561   19.937750 C.3        1 MOL1         0.1043
      36    H17     16.828025   18.771287   20.273224 H          1 MOL1         0.0783
      37    O9      14.939932   19.394453   19.663297 O.3        1 MOL1        -0.3740
      38    C12     16.180157   17.594530   18.607697 C.3        1 MOL1         0.0138
      39    H18     17.205041   17.206161   18.647833 H          1 MOL1         0.0794
      40    H19     16.152495   18.327084   17.790101 H          1 MOL1         0.0794
      41    O10     15.270475   16.523029   18.336709 O.3        1 MOL1        -0.5486
      42    H20     15.631024   15.729592   18.794361 H          1 MOL1         0.3769
      43    C13     18.501099   24.033166   21.155125 C.3        1 MOL1         0.2972
      44    H21     18.976516   25.016587   21.048680 H          1 MOL1         0.0751
      45    O11     19.482875   22.988546   21.325161 O.3        1 MOL1        -0.3740
      46    C14     17.504700   24.020386   22.345604 C.3        1 MOL1         0.1003
      47    H22     16.713136   24.743415   22.109334 H          1 MOL1         0.0783
      48    O12     18.128813   24.411082   23.577248 O.3        1 MOL1        -0.5519
      49    H23     18.842268   23.748760   23.763435 H          1 MOL1         0.3769
      50    C15     16.846082   22.626306   22.477165 C.3        1 MOL1         0.1053
      51    H24     17.626315   21.899237   22.742240 H          1 MOL1         0.0783
      52    O13     15.843482   22.658168   23.499948 O.3        1 MOL1        -0.5519
      53    H25     16.266631   23.116709   24.259423 H          1 MOL1         0.3769
      54    C16     16.202884   22.190973   21.137499 C.3        1 MOL1         0.1018
      55    H26     15.275442   22.763316   21.004744 H          1 MOL1         0.0783
      56    C17     17.141373   22.409436   19.915791 C.3        1 MOL1         0.1043
      57    H27     17.935101   21.653785   19.958181 H          1 MOL1         0.0783
      58    O14     17.737791   23.730181   19.969198 O.3        1 MOL1        -0.3740
      59    C18     16.433611   22.260756   18.547459 C.3        1 MOL1         0.0138
      60    H28     16.224845   21.197538   18.374037 H          1 MOL1         0.0794
      61    H29     17.126155   22.585540   17.759473 H          1 MOL1         0.0794
      62    O15     15.216044   23.014741   18.481391 O.3        1 MOL1        -0.5486
      63    H30     14.848550   22.906635   17.577253 H          1 MOL1         0.3769
      64    C19     23.486229   22.355161   22.222143 C.3        1 MOL1         0.2972
      65    H31     24.533454   22.430058   22.540628 H          1 MOL1         0.0751
      66    O16     23.230575   21.124587   21.518247 O.3        1 MOL1        -0.3740
      67    C20     22.550606   22.448180   23.453564 C.3        1 MOL1         0.1003
      68    H32     22.688058   23.451491   23.876462 H          1 MOL1         0.0783
      69    O17     22.911916   21.487992   24.459323 O.3        1 MOL1        -0.5519
      70    H33     22.505047   20.609269   24.229178 H          1 MOL1         0.3769
      71    C21     21.068579   22.326986   23.019205 C.3        1 MOL1         0.1053
      72    H34     20.909034   21.325783   22.597779 H          1 MOL1         0.0783
      73    O18     20.209029   22.525450   24.147107 O.3        1 MOL1        -0.5519
      74    H35     20.287872   21.691509   24.686840 H          1 MOL1         0.3769
      75    C22     20.738306   23.373864   21.924052 C.3        1 MOL1         0.1018
      76    H36     20.678317   24.362725   22.397858 H          1 MOL1         0.0783
      77    C23     21.799097   23.400816   20.785924 C.3        1 MOL1         0.1043
      78    H37     21.679301   22.482038   20.198249 H          1 MOL1         0.0783
      79    O19     23.142557   23.442382   21.335879 O.3        1 MOL1        -0.3740
      80    C24     21.632855   24.592136   19.812394 C.3        1 MOL1         0.0138
      81    H38     20.728022   24.427098   19.211803 H          1 MOL1         0.0794
      82    H39     22.485978   24.600731   19.120877 H          1 MOL1         0.0794
      83    O20     21.536730   25.845217   20.501602 O.3        1 MOL1        -0.5486
      84    H40     21.516190   26.556562   19.824810 H          1 MOL1         0.3769
      85    C25     24.980131   17.624446   20.355155 C.3        1 MOL1         0.2972
      86    H41     25.551649   16.782924   19.943303 H          1 MOL1         0.0751
      87    O21     23.683920   17.201389   20.826396 O.3        1 MOL1        -0.3740
      88    C26     25.761541   18.335002   21.490405 C.3        1 MOL1         0.1003
      89    H42     26.669591   18.750920   21.034752 H          1 MOL1         0.0783
      90    O22     26.148345   17.425055   22.531305 O.3        1 MOL1        -0.5519
      91    H43     25.312495   17.126877   22.971247 H          1 MOL1         0.3769
      92    C27     24.945938   19.516847   22.071905 C.3        1 MOL1         0.1053
      93    H44     24.094772   19.105992   22.632387 H          1 MOL1         0.0783
      94    O23     25.796603   20.262336   22.949709 O.3        1 MOL1        -0.5519
      95    H45     26.150478   19.606833   23.588913 H          1 MOL1         0.3769
      96    C28     24.377303   20.450272   20.965283 C.3        1 MOL1         0.1018
      97    H46     25.156104   21.161878   20.664631 H          1 MOL1         0.0783
      98    C29     23.858638   19.693434   19.708196 C.3        1 MOL1         0.1043
      99    H47     22.884036   19.258621   19.956442 H          1 MOL1         0.0783
     100    O24     24.763898   18.623795   19.337223 O.3        1 MOL1        -0.3740
     101    C30     23.625763   20.603648   18.476982 C.3        1 MOL1         0.0138
     102    H48     22.722129   21.201612   18.651272 H          1 MOL1         0.0794
     103    H49     23.423586   19.964123   17.607607 H          1 MOL1         0.0794
     104    O25     24.734528   21.468991   18.202088 O.3        1 MOL1        -0.5486
     105    H50     24.738530   22.171382   18.887337 H          1 MOL1         0.3769
     106    C31     21.364832   14.088425   22.163684 C.3        1 MOL1         0.2972
     107    H51     20.930907   13.151647   22.536857 H          1 MOL1         0.0751
     108    O26     20.347436   15.011750   21.730626 O.3        1 MOL1        -0.3740
     109    C32     22.188892   14.776350   23.278266 C.3        1 MOL1         0.1003
     110    H52     23.022010   14.111467   23.539355 H          1 MOL1         0.0783
     111    O27     21.364826   14.979437   24.438361 O.3        1 MOL1        -0.5519
     112    H53     20.433310   14.806122   24.162874 H          1 MOL1         0.3769
     113    C33     22.784330   16.107245   22.752705 C.3        1 MOL1         0.1053
     114    H54     21.953809   16.787721   22.535052 H          1 MOL1         0.0783
     115    O28     23.630180   16.710602   23.737566 O.3        1 MOL1        -0.5519
     116    H55     23.069569   17.435319   24.128288 H          1 MOL1         0.3769
     117    C34     23.567683   15.898729   21.430461 C.3        1 MOL1         0.1018
     118    H56     24.545313   15.453909   21.656992 H          1 MOL1         0.0783
     119    C35     22.798337   15.014930   20.406602 C.3        1 MOL1         0.1043
     120    H57     21.978859   15.620606   20.000057 H          1 MOL1         0.0783
     121    O29     22.239999   13.837239   21.044702 O.3        1 MOL1        -0.3740
     122    C36     23.664125   14.561213   19.207334 C.3        1 MOL1         0.0138
     123    H58     23.873613   15.437153   18.578595 H          1 MOL1         0.0794
     124    H59     23.080340   13.856446   18.600014 H          1 MOL1         0.0794
     125    O30     24.894733   13.958365   19.626408 O.3        1 MOL1        -0.5486
     126    H60     25.353191   13.627141   18.823498 H          1 MOL1         0.3769
     127    C1      20.672570   19.069575   24.358559 C.2        1 MOL1         0.6075
     128    O1      20.285505   19.927629   25.127173 O.co2      1 MOL1        -0.6830
     129    O2      21.850470   18.872541   24.122889 O.co2      1 MOL1        -0.6830
     130    C2      19.617420   18.269540   23.598092 C.3        1 MOL1        -0.2050
     131    H1      18.728428   18.213703   24.237286 H          1 MOL1         0.0710
     132    H2      19.979576   17.244771   23.477880 H          1 MOL1         0.0710
     133    C3      19.219669   18.873479   22.225211 C.3        1 MOL1        -0.1947
     134    H3      18.304095   18.381367   21.882467 H          1 MOL1         0.0712
     135    H4      18.977372   19.936967   22.351456 H          1 MOL1         0.0712
     136    C4      20.315944   18.702009   21.151636 C.3        1 MOL1        -0.1921
     137    H5      20.495057   17.634776   20.974139 H          1 MOL1         0.0712
     138    H6      21.259766   19.122187   21.522145 H          1 MOL1         0.0712
     139    C5      19.940140   19.384882   19.822003 C.3        1 MOL1        -0.2936
     140    H7      18.978558   19.017842   19.445513 H          1 MOL1         0.0724
     141    H8      20.699699   19.185330   19.056377 H          1 MOL1         0.0724
     142    H9      19.871898   20.471502   19.954531 H          1 MOL1         0.0724
@<TRIPOS>BOND
    1     1     2    1
    2     1     3    1
    3     1     4    1
    4     4     5    1
    5     4     6    1
    6     6     7    1
    7     4     8    1
    8     8     9    1
    9     8    10    1
   10    10    11    1
   11     8    12    1
   12    12    13    1
   13    12    14    1
   14    14    15    1
   15     1    16    1
   16    14    16    1
   17    14    17    1
   18    17    18    1
   19    17    19    1
   20    17    20    1
   21    20    21    1
   22    22    23    1
   23    22    24    1
   24    22    25    1
   25    25    26    1
   26    25    27    1
   27    27    28    1
   28    25    29    1
   29    29    30    1
   30    29    31    1
   31    31    32    1
   32     3    33    1
   33    29    33    1
   34    33    34    1
   35    33    35    1
   36    35    36    1
   37    22    37    1
   38    35    37    1
   39    35    38    1
   40    38    39    1
   41    38    40    1
   42    38    41    1
   43    41    42    1
   44    43    44    1
   45    43    45    1
   46    43    46    1
   47    46    47    1
   48    46    48    1
   49    48    49    1
   50    46    50    1
   51    50    51    1
   52    50    52    1
   53    52    53    1
   54    24    54    1
   55    50    54    1
   56    54    55    1
   57    54    56    1
   58    56    57    1
   59    43    58    1
   60    56    58    1
   61    56    59    1
   62    59    60    1
   63    59    61    1
   64    59    62    1
   65    62    63    1
   66    64    65    1
   67    64    66    1
   68    64    67    1
   69    67    68    1
   70    67    69    1
   71    69    70    1
   72    67    71    1
   73    71    72    1
   74    71    73    1
   75    73    74    1
   76    45    75    1
   77    71    75    1
   78    75    76    1
   79    75    77    1
   80    77    78    1
   81    64    79    1
   82    77    79    1
   83    77    80    1
   84    80    81    1
   85    80    82    1
   86    80    83    1
   87    83    84    1
   88    85    86    1
   89    85    87    1
   90    85    88    1
   91    88    89    1
   92    88    90    1
   93    90    91    1
   94    88    92    1
   95    92    93    1
   96    92    94    1
   97    94    95    1
   98    66    96    1
   99    92    96    1
  100    96    97    1
  101    96    98    1
  102    98    99    1
  103    85   100    1
  104    98   100    1
  105    98   101    1
  106   101   102    1
  107   101   103    1
  108   101   104    1
  109   104   105    1
  110   106   107    1
  111    12   108    1
  112   106   108    1
  113   106   109    1
  114   109   110    1
  115   109   111    1
  116   111   112    1
  117   109   113    1
  118   113   114    1
  119   113   115    1
  120   115   116    1
  121    87   117    1
  122   113   117    1
  123   117   118    1
  124   117   119    1
  125   119   120    1
  126   106   121    1
  127   119   121    1
  128   119   122    1
  129   122   123    1
  130   122   124    1
  131   122   125    1
  132   125   126    1
  133   127   128    1
  134   127   129    2
  135   127   130    1
  136   130   131    1
  137   130   132    1
  138   130   133    1
  139   133   134    1
  140   133   135    1
  141   133   136    1
  142   136   137    1
  143   136   138    1
  144   136   139    1
  145   139   140    1
  146   139   141    1
  147   139   142    1
@<TRIPOS>SUBSTRUCTURE
       1 MOL1            1 RESIDUE      1      MOL     
       2 MOL1          142 RESIDUE      1      MOL     
@<SCITEGIC>MOL_PROPERTY
feprocess Rank
SciTegic.value.IntegerValue
8

@<SCITEGIC>MOL_PROPERTY
Conf_Id
SciTegic.value.IntegerValue
476

@<SCITEGIC>MOL_PROPERTY
Probability
SciTegic.value.DoubleValue
3.69

@<SCITEGIC>MOL_PROPERTY
G
SciTegic.value.DoubleValue
490.739

@<SCITEGIC>MOL_PROPERTY
E
SciTegic.value.DoubleValue
307.476

@<SCITEGIC>MOL_PROPERTY
-TS
SciTegic.value.DoubleValue
183.263

@<SCITEGIC>MOL_PROPERTY
U+W
SciTegic.value.DoubleValue
182.282

@<SCITEGIC>MOL_PROPERTY
U
SciTegic.value.DoubleValue
257.717

@<SCITEGIC>MOL_PROPERTY
W
SciTegic.value.DoubleValue
-75.435

@<SCITEGIC>MOL_PROPERTY
W(PB)
SciTegic.value.DoubleValue
-81.354

@<SCITEGIC>MOL_PROPERTY
W(SA)
SciTegic.value.DoubleValue
5.919

@<SCITEGIC>MOL_PROPERTY
Valence
SciTegic.value.DoubleValue
152.243

@<SCITEGIC>MOL_PROPERTY
Coulomb
SciTegic.value.DoubleValue
130.443

@<SCITEGIC>MOL_PROPERTY
VdW
SciTegic.value.DoubleValue
-24.970

@<SCITEGIC>MOL_PROPERTY
VdW6
SciTegic.value.DoubleValue
-184.300

@<SCITEGIC>MOL_PROPERTY
VdW12
SciTegic.value.DoubleValue
159.330

@<SCITEGIC>MOL_PROPERTY
Bond
SciTegic.value.DoubleValue
5.050

@<SCITEGIC>MOL_PROPERTY
Angle
SciTegic.value.DoubleValue
14.589

@<SCITEGIC>MOL_PROPERTY
Pdih
SciTegic.value.DoubleValue
132.594

@<SCITEGIC>MOL_PROPERTY
Idih
SciTegic.value.DoubleValue
0.010

@<SCITEGIC>MOL_PROPERTY
Tether
SciTegic.value.DoubleValue
0.000

