@<TRIPOS>MOLECULE
CD_guest-8_fast_vm2_rndm.mol2 : feprocess host+ligand conformer 1
         151         156           2
SMALL
USER_CHARGES
 
@<TRIPOS>ATOM
       1    C1      16.285812   15.298949   20.583169 C.3        1 MOL1         0.2972
       2    H1      15.238703   15.202122   20.269330 H          1 MOL1         0.0751
       3    O1      16.612051   16.669734   20.901162 O.3        1 MOL1        -0.3740
       4    C2      16.601143   14.365901   21.788430 C.3        1 MOL1         0.1003
       5    H2      16.440815   13.336526   21.442316 H          1 MOL1         0.0783
       6    O2      15.742107   14.606208   22.912369 O.3        1 MOL1        -0.5519
       7    H3      15.966862   15.508831   23.252801 H          1 MOL1         0.3769
       8    C3      18.086742   14.496154   22.202587 C.3        1 MOL1         0.1053
       9    H4      18.252327   15.514410   22.578672 H          1 MOL1         0.0783
      10    O3      18.389751   13.543207   23.227021 O.3        1 MOL1        -0.5519
      11    H5      17.637913   13.596101   23.858129 H          1 MOL1         0.3769
      12    C4      19.016943   14.273676   20.986782 C.3        1 MOL1         0.1018
      13    H6      18.998006   13.207993   20.723835 H          1 MOL1         0.0783
      14    C5      18.581565   15.115336   19.757111 C.3        1 MOL1         0.1043
      15    H7      18.743162   16.170627   19.999261 H          1 MOL1         0.0783
      16    O4      17.168115   14.898211   19.507521 O.3        1 MOL1        -0.3740
      17    C6      19.383692   14.836093   18.459817 C.3        1 MOL1         0.0138
      18    H8      20.268829   15.485669   18.454902 H          1 MOL1         0.0794
      19    H9      18.768716   15.129271   17.598592 H          1 MOL1         0.0794
      20    O5      19.797398   13.471016   18.330831 O.3        1 MOL1        -0.5486
      21    H10     20.618658   13.373127   18.864796 H          1 MOL1         0.3769
      22    C7      15.196059   20.337724   22.132881 C.3        1 MOL1         0.2972
      23    H11     14.630090   21.186032   22.536917 H          1 MOL1         0.0751
      24    O6      16.361726   20.780835   21.406650 O.3        1 MOL1        -0.3740
      25    C8      15.634189   19.404243   23.291751 C.3        1 MOL1         0.1003
      26    H12     14.721171   19.053410   23.789680 H          1 MOL1         0.0783
      27    O7      16.432212   20.137442   24.237011 O.3        1 MOL1        -0.5519
      28    H13     16.932243   19.496363   24.802790 H          1 MOL1         0.3769
      29    C9      16.385631   18.159772   22.756383 C.3        1 MOL1         0.1053
      30    H14     17.357767   18.490132   22.371392 H          1 MOL1         0.0783
      31    O8      16.565194   17.207350   23.814191 O.3        1 MOL1        -0.5519
      32    H15     17.179244   17.613893   24.479128 H          1 MOL1         0.3769
      33    C10     15.629315   17.471174   21.589323 C.3        1 MOL1         0.1018
      34    H16     14.812607   16.865058   22.001699 H          1 MOL1         0.0783
      35    C11     15.059569   18.477759   20.551975 C.3        1 MOL1         0.1043
      36    H17     15.904486   18.876028   19.976813 H          1 MOL1         0.0783
      37    O9      14.380440   19.569440   21.222902 O.3        1 MOL1        -0.3740
      38    C12     14.081717   17.837771   19.537603 C.3        1 MOL1         0.0138
      39    H18     14.657524   17.194876   18.858262 H          1 MOL1         0.0794
      40    H19     13.635741   18.636589   18.930056 H          1 MOL1         0.0794
      41    O10     13.057011   17.069614   20.180729 O.3        1 MOL1        -0.5486
      42    H20     12.432987   16.764146   19.486643 H          1 MOL1         0.3769
      43    C13     18.464797   24.064652   20.333656 C.3        1 MOL1         0.2972
      44    H21     18.940394   24.977546   19.952737 H          1 MOL1         0.0751
      45    O11     19.441235   23.121233   20.827382 O.3        1 MOL1        -0.3740
      46    C14     17.430369   24.385059   21.440042 C.3        1 MOL1         0.1003
      47    H22     16.624990   24.960455   20.964979 H          1 MOL1         0.0783
      48    O12     17.997730   25.176386   22.494177 O.3        1 MOL1        -0.5519
      49    H23     18.689520   24.617218   22.929422 H          1 MOL1         0.3769
      50    C15     16.810003   23.081185   22.000301 C.3        1 MOL1         0.1053
      51    H24     17.584406   22.554339   22.576046 H          1 MOL1         0.0783
      52    O13     15.721345   23.433828   22.860735 O.3        1 MOL1        -0.5519
      53    H25     16.088113   24.096407   23.485818 H          1 MOL1         0.3769
      54    C16     16.313280   22.121996   20.877346 C.3        1 MOL1         0.1018
      55    H26     15.290320   22.403889   20.599737 H          1 MOL1         0.0783
      56    C17     17.206922   22.105078   19.599663 C.3        1 MOL1         0.1043
      57    H27     18.061645   21.450006   19.797327 H          1 MOL1         0.0783
      58    O14     17.714930   23.423747   19.283450 O.3        1 MOL1        -0.3740
      59    C18     16.496671   21.537074   18.345503 C.3        1 MOL1         0.0138
      60    H28     16.379522   20.453035   18.468086 H          1 MOL1         0.0794
      61    H29     17.152377   21.692064   17.478354 H          1 MOL1         0.0794
      62    O15     15.219372   22.140434   18.103593 O.3        1 MOL1        -0.5486
      63    H30     14.592035   21.790335   18.771502 H          1 MOL1         0.3769
      64    C19     23.319534   22.660209   22.183863 C.3        1 MOL1         0.2972
      65    H31     24.345533   22.789952   22.552279 H          1 MOL1         0.0751
      66    O16     23.040959   21.284772   21.867273 O.3        1 MOL1        -0.3740
      67    C20     22.313342   23.115435   23.265110 C.3        1 MOL1         0.1003
      68    H32     22.496032   24.180556   23.458075 H          1 MOL1         0.0783
      69    O17     22.509365   22.374473   24.480141 O.3        1 MOL1        -0.5519
      70    H33     23.050407   21.581089   24.247694 H          1 MOL1         0.3769
      71    C21     20.859089   22.963085   22.763298 C.3        1 MOL1         0.1053
      72    H34     20.645027   21.893220   22.643461 H          1 MOL1         0.0783
      73    O18     19.979412   23.524105   23.741594 O.3        1 MOL1        -0.5519
      74    H35     20.272389   23.129368   24.593760 H          1 MOL1         0.3769
      75    C22     20.658613   23.651504   21.387627 C.3        1 MOL1         0.1018
      76    H36     20.606987   24.738270   21.535984 H          1 MOL1         0.0783
      77    C23     21.791135   23.303283   20.379421 C.3        1 MOL1         0.1043
      78    H37     21.653051   22.258848   20.075835 H          1 MOL1         0.0783
      79    O19     23.098504   23.446245   20.993852 O.3        1 MOL1        -0.3740
      80    C24     21.755205   24.158725   19.090934 C.3        1 MOL1         0.0138
      81    H38     20.877770   23.861072   18.500707 H          1 MOL1         0.0794
      82    H39     22.645605   23.927592   18.490824 H          1 MOL1         0.0794
      83    O20     21.695471   25.561706   19.376622 O.3        1 MOL1        -0.5486
      84    H40     21.752456   26.042663   18.522362 H          1 MOL1         0.3769
      85    C25     25.025899   17.653458   21.363697 C.3        1 MOL1         0.2972
      86    H41     25.762252   16.868557   21.148863 H          1 MOL1         0.0751
      87    O21     23.711209   17.112634   21.591626 O.3        1 MOL1        -0.3740
      88    C26     25.418094   18.452338   22.634863 C.3        1 MOL1         0.1003
      89    H42     26.389620   18.924699   22.439944 H          1 MOL1         0.0783
      90    O22     25.537811   17.587549   23.775296 O.3        1 MOL1        -0.5519
      91    H43     24.772299   16.958492   23.751804 H          1 MOL1         0.3769
      92    C27     24.387128   19.576790   22.910166 C.3        1 MOL1         0.1053
      93    H44     23.422687   19.111338   23.157930 H          1 MOL1         0.0783
      94    O23     24.831933   20.381308   24.006981 O.3        1 MOL1        -0.5519
      95    H45     25.137908   19.738711   24.685580 H          1 MOL1         0.3769
      96    C28     24.193834   20.454827   21.649440 C.3        1 MOL1         0.1018
      97    H46     25.103552   21.048218   21.488568 H          1 MOL1         0.0783
      98    C29     23.918126   19.602182   20.384121 C.3        1 MOL1         0.1043
      99    H47     22.944734   19.116664   20.510536 H          1 MOL1         0.0783
     100    O24     24.945262   18.587886   20.262942 O.3        1 MOL1        -0.3740
     101    C30     23.851044   20.415341   19.065389 C.3        1 MOL1         0.0138
     102    H48     22.816461   20.745095   18.917945 H          1 MOL1         0.0794
     103    H49     24.092525   19.747670   18.227761 H          1 MOL1         0.0794
     104    O25     24.718845   21.556215   19.056497 O.3        1 MOL1        -0.5486
     105    H50     24.337550   22.216495   19.680153 H          1 MOL1         0.3769
     106    C31     21.367050   13.723577   21.360984 C.3        1 MOL1         0.2972
     107    H51     20.962727   12.706783   21.277788 H          1 MOL1         0.0751
     108    O26     20.324866   14.715919   21.386781 O.3        1 MOL1        -0.3740
     109    C32     22.181119   13.860438   22.669272 C.3        1 MOL1         0.1003
     110    H52     23.017664   13.151519   22.617318 H          1 MOL1         0.0783
     111    O27     21.364465   13.549449   23.809827 O.3        1 MOL1        -0.5519
     112    H53     20.430921   13.775909   23.570273 H          1 MOL1         0.3769
     113    C33     22.766296   15.284801   22.794795 C.3        1 MOL1         0.1053
     114    H54     21.929997   15.985442   22.915563 H          1 MOL1         0.0783
     115    O28     23.617971   15.348296   23.942762 O.3        1 MOL1        -0.5519
     116    H55     23.110647   14.901363   24.656791 H          1 MOL1         0.3769
     117    C34     23.553726   15.684701   21.522611 C.3        1 MOL1         0.1018
     118    H56     24.517705   15.159298   21.525412 H          1 MOL1         0.0783
     119    C35     22.773119   15.369454   20.213892 C.3        1 MOL1         0.1043
     120    H57     21.941482   16.082121   20.136919 H          1 MOL1         0.0783
     121    O29     22.238250   14.019651   20.249541 O.3        1 MOL1        -0.3740
     122    C36     23.629404   15.525106   18.935026 C.3        1 MOL1         0.0138
     123    H58     23.834725   16.593094   18.781585 H          1 MOL1         0.0794
     124    H59     23.041388   15.179125   18.074465 H          1 MOL1         0.0794
     125    O30     24.862886   14.800255   19.020711 O.3        1 MOL1        -0.5486
     126    H60     25.332567   14.909903   18.165545 H          1 MOL1         0.3769
     127    C1      19.465169   18.421936   25.573991 C.2        1 MOL1         0.6168
     128    O1      20.212088   18.740684   26.477570 O.co2      1 MOL1        -0.6703
     129    O2      18.250162   18.481862   25.637180 O.co2      1 MOL1        -0.6703
     130    C2      20.074367   17.908527   24.274348 C.3        1 MOL1        -0.1963
     131    H1      19.493939   17.030778   23.969131 H          1 MOL1         0.0750
     132    H2      21.096451   17.566350   24.474332 H          1 MOL1         0.0750
     133    C3      20.076436   18.974765   23.150884 C.3        1 MOL1        -0.1860
     134    H3      19.129891   19.530754   23.174484 H          1 MOL1         0.0752
     135    H4      20.869663   19.707986   23.347106 H          1 MOL1         0.0752
     136    C4      20.269385   18.343467   21.755804 C.3        1 MOL1        -0.1858
     137    H5      19.565370   17.511967   21.629961 H          1 MOL1         0.0752
     138    H6      21.277226   17.923359   21.683192 H          1 MOL1         0.0752
     139    C5      20.039675   19.371656   20.630855 C.3        1 MOL1        -0.1858
     140    H7      19.004104   19.726671   20.691083 H          1 MOL1         0.0752
     141    H8      20.686990   20.242063   20.793072 H          1 MOL1         0.0752
     142    C6      20.302789   18.780409   19.228893 C.3        1 MOL1        -0.1858
     143    H9      19.641190   17.923986   19.059903 H          1 MOL1         0.0752
     144    H10     21.330310   18.401448   19.171545 H          1 MOL1         0.0752
     145    C7      20.066912   19.816652   18.111945 C.3        1 MOL1        -0.1834
     146    H11     19.003540   20.082146   18.080961 H          1 MOL1         0.0752
     147    H12     20.617415   20.741218   18.327604 H          1 MOL1         0.0752
     148    C8      20.494712   19.270392   16.735939 C.3        1 MOL1        -0.2849
     149    H13     19.933972   18.360980   16.483694 H          1 MOL1         0.0764
     150    H14     20.307574   20.013417   15.950084 H          1 MOL1         0.0764
     151    H15     21.565193   19.027706   16.725023 H          1 MOL1         0.0764
@<TRIPOS>BOND
    1     1     2    1
    2     1     3    1
    3     1     4    1
    4     4     5    1
    5     4     6    1
    6     6     7    1
    7     4     8    1
    8     8     9    1
    9     8    10    1
   10    10    11    1
   11     8    12    1
   12    12    13    1
   13    12    14    1
   14    14    15    1
   15     1    16    1
   16    14    16    1
   17    14    17    1
   18    17    18    1
   19    17    19    1
   20    17    20    1
   21    20    21    1
   22    22    23    1
   23    22    24    1
   24    22    25    1
   25    25    26    1
   26    25    27    1
   27    27    28    1
   28    25    29    1
   29    29    30    1
   30    29    31    1
   31    31    32    1
   32     3    33    1
   33    29    33    1
   34    33    34    1
   35    33    35    1
   36    35    36    1
   37    22    37    1
   38    35    37    1
   39    35    38    1
   40    38    39    1
   41    38    40    1
   42    38    41    1
   43    41    42    1
   44    43    44    1
   45    43    45    1
   46    43    46    1
   47    46    47    1
   48    46    48    1
   49    48    49    1
   50    46    50    1
   51    50    51    1
   52    50    52    1
   53    52    53    1
   54    24    54    1
   55    50    54    1
   56    54    55    1
   57    54    56    1
   58    56    57    1
   59    43    58    1
   60    56    58    1
   61    56    59    1
   62    59    60    1
   63    59    61    1
   64    59    62    1
   65    62    63    1
   66    64    65    1
   67    64    66    1
   68    64    67    1
   69    67    68    1
   70    67    69    1
   71    69    70    1
   72    67    71    1
   73    71    72    1
   74    71    73    1
   75    73    74    1
   76    45    75    1
   77    71    75    1
   78    75    76    1
   79    75    77    1
   80    77    78    1
   81    64    79    1
   82    77    79    1
   83    77    80    1
   84    80    81    1
   85    80    82    1
   86    80    83    1
   87    83    84    1
   88    85    86    1
   89    85    87    1
   90    85    88    1
   91    88    89    1
   92    88    90    1
   93    90    91    1
   94    88    92    1
   95    92    93    1
   96    92    94    1
   97    94    95    1
   98    66    96    1
   99    92    96    1
  100    96    97    1
  101    96    98    1
  102    98    99    1
  103    85   100    1
  104    98   100    1
  105    98   101    1
  106   101   102    1
  107   101   103    1
  108   101   104    1
  109   104   105    1
  110   106   107    1
  111    12   108    1
  112   106   108    1
  113   106   109    1
  114   109   110    1
  115   109   111    1
  116   111   112    1
  117   109   113    1
  118   113   114    1
  119   113   115    1
  120   115   116    1
  121    87   117    1
  122   113   117    1
  123   117   118    1
  124   117   119    1
  125   119   120    1
  126   106   121    1
  127   119   121    1
  128   119   122    1
  129   122   123    1
  130   122   124    1
  131   122   125    1
  132   125   126    1
  133   127   128    1
  134   127   129    2
  135   127   130    1
  136   130   131    1
  137   130   132    1
  138   130   133    1
  139   133   134    1
  140   133   135    1
  141   133   136    1
  142   136   137    1
  143   136   138    1
  144   136   139    1
  145   139   140    1
  146   139   141    1
  147   139   142    1
  148   142   143    1
  149   142   144    1
  150   142   145    1
  151   145   146    1
  152   145   147    1
  153   145   148    1
  154   148   149    1
  155   148   150    1
  156   148   151    1
@<TRIPOS>SUBSTRUCTURE
       1 MOL1            1 RESIDUE      1      MOL     
       2 MOL1          151 RESIDUE      1      MOL     
@<SCITEGIC>MOL_PROPERTY
feprocess Rank
SciTegic.value.IntegerValue
1

@<SCITEGIC>MOL_PROPERTY
Conf_Id
SciTegic.value.IntegerValue
462

@<SCITEGIC>MOL_PROPERTY
Probability
SciTegic.value.DoubleValue
49.45

@<SCITEGIC>MOL_PROPERTY
G
SciTegic.value.DoubleValue
514.375

@<SCITEGIC>MOL_PROPERTY
E
SciTegic.value.DoubleValue
317.646

@<SCITEGIC>MOL_PROPERTY
-TS
SciTegic.value.DoubleValue
196.729

@<SCITEGIC>MOL_PROPERTY
U+W
SciTegic.value.DoubleValue
184.404

@<SCITEGIC>MOL_PROPERTY
U
SciTegic.value.DoubleValue
262.153

@<SCITEGIC>MOL_PROPERTY
W
SciTegic.value.DoubleValue
-77.749

@<SCITEGIC>MOL_PROPERTY
W(PB)
SciTegic.value.DoubleValue
-83.890

@<SCITEGIC>MOL_PROPERTY
W(SA)
SciTegic.value.DoubleValue
6.141

@<SCITEGIC>MOL_PROPERTY
Valence
SciTegic.value.DoubleValue
153.444

@<SCITEGIC>MOL_PROPERTY
Coulomb
SciTegic.value.DoubleValue
136.516

@<SCITEGIC>MOL_PROPERTY
VdW
SciTegic.value.DoubleValue
-27.808

@<SCITEGIC>MOL_PROPERTY
VdW6
SciTegic.value.DoubleValue
-188.662

@<SCITEGIC>MOL_PROPERTY
VdW12
SciTegic.value.DoubleValue
160.854

@<SCITEGIC>MOL_PROPERTY
Bond
SciTegic.value.DoubleValue
4.867

@<SCITEGIC>MOL_PROPERTY
Angle
SciTegic.value.DoubleValue
14.347

@<SCITEGIC>MOL_PROPERTY
Pdih
SciTegic.value.DoubleValue
134.230

@<SCITEGIC>MOL_PROPERTY
Idih
SciTegic.value.DoubleValue
0.000

@<SCITEGIC>MOL_PROPERTY
Tether
SciTegic.value.DoubleValue
0.000

