@<TRIPOS>MOLECULE
CD_guest-s13_fast_vm2_rndm.mol2 : feprocess host+ligand conformer 1
         152         157           2
SMALL
USER_CHARGES
 
@<TRIPOS>ATOM
       1    C1      16.282525   15.268339   20.499844 C.3        1 MOL1         0.2972
       2    H1      15.294510   15.030748   20.084842 H          1 MOL1         0.0751
       3    O1      16.372510   16.644867   20.919901 O.3        1 MOL1        -0.3740
       4    C2      16.588032   14.382479   21.737084 C.3        1 MOL1         0.1003
       5    H2      16.567291   13.335885   21.406462 H          1 MOL1         0.0783
       6    O2      15.602723   14.570924   22.765709 O.3        1 MOL1        -0.5519
       7    H3      15.425712   15.543110   22.838029 H          1 MOL1         0.3769
       8    C3      18.004871   14.682710   22.286203 C.3        1 MOL1         0.1053
       9    H4      18.002670   15.710615   22.666333 H          1 MOL1         0.0783
      10    O3      18.308445   13.778412   23.354286 O.3        1 MOL1        -0.5519
      11    H5      17.474838   13.711967   23.872751 H          1 MOL1         0.3769
      12    C4      19.060738   14.578070   21.152982 C.3        1 MOL1         0.1018
      13    H6      19.174408   13.524132   20.867290 H          1 MOL1         0.0783
      14    C5      18.650280   15.399969   19.904125 C.3        1 MOL1         0.1043
      15    H7      18.667523   16.463865   20.170741 H          1 MOL1         0.0783
      16    O4      17.308532   15.028908   19.510498 O.3        1 MOL1        -0.3740
      17    C6      19.603357   15.221179   18.694499 C.3        1 MOL1         0.0138
      18    H8      20.462044   15.891122   18.829695 H          1 MOL1         0.0794
      19    H9      19.081679   15.547246   17.784902 H          1 MOL1         0.0794
      20    O5      20.071001   13.875460   18.541266 O.3        1 MOL1        -0.5486
      21    H10     20.670156   13.686200   19.296973 H          1 MOL1         0.3769
      22    C7      14.535612   20.305118   20.794020 C.3        1 MOL1         0.2972
      23    H11     13.895980   21.190724   20.687369 H          1 MOL1         0.0751
      24    O6      15.924897   20.673082   20.960276 O.3        1 MOL1        -0.3740
      25    C8      14.068546   19.409513   21.972394 C.3        1 MOL1         0.1003
      26    H12     13.081032   19.012309   21.703043 H          1 MOL1         0.0783
      27    O7      13.945970   20.139136   23.201175 O.3        1 MOL1        -0.5519
      28    H13     14.858009   20.427586   23.454889 H          1 MOL1         0.3769
      29    C9      15.033996   18.211899   22.129366 C.3        1 MOL1         0.1053
      30    H14     16.021585   18.602826   22.402957 H          1 MOL1         0.0783
      31    O8      14.562043   17.337740   23.159459 O.3        1 MOL1        -0.5519
      32    H15     14.261372   17.931331   23.882980 H          1 MOL1         0.3769
      33    C10     15.171165   17.429949   20.799120 C.3        1 MOL1         0.1018
      34    H16     14.278056   16.801757   20.683831 H          1 MOL1         0.0783
      35    C11     15.339855   18.347767   19.550999 C.3        1 MOL1         0.1043
      36    H17     16.369661   18.722023   19.538445 H          1 MOL1         0.0783
      37    O9      14.438091   19.482835   19.611817 O.3        1 MOL1        -0.3740
      38    C12     15.112055   17.609786   18.210134 C.3        1 MOL1         0.0138
      39    H18     15.950584   16.920020   18.044713 H          1 MOL1         0.0794
      40    H19     15.131854   18.347405   17.396735 H          1 MOL1         0.0794
      41    O10     13.876059   16.884412   18.195013 O.3        1 MOL1        -0.5486
      42    H20     13.770359   16.494872   17.299646 H          1 MOL1         0.3769
      43    C13     18.530873   23.642200   22.213250 C.3        1 MOL1         0.2972
      44    H21     18.992385   24.549513   22.622635 H          1 MOL1         0.0751
      45    O11     19.480223   22.855891   21.463764 O.3        1 MOL1        -0.3740
      46    C14     17.950456   22.773128   23.357321 C.3        1 MOL1         0.1003
      47    H22     17.208734   23.387206   23.884647 H          1 MOL1         0.0783
      48    O12     18.968431   22.358339   24.284332 O.3        1 MOL1        -0.5519
      49    H23     19.712369   23.002581   24.203095 H          1 MOL1         0.3769
      50    C15     17.234886   21.527483   22.793082 C.3        1 MOL1         0.1053
      51    H24     17.994728   20.886434   22.336962 H          1 MOL1         0.0783
      52    O13     16.615155   20.839418   23.881042 O.3        1 MOL1        -0.5519
      53    H25     17.274895   20.898062   24.608342 H          1 MOL1         0.3769
      54    C16     16.205155   21.886540   21.691636 C.3        1 MOL1         0.1018
      55    H26     15.306278   22.302481   22.165644 H          1 MOL1         0.0783
      56    C17     16.779577   22.899425   20.660471 C.3        1 MOL1         0.1043
      57    H27     17.512888   22.372129   20.036964 H          1 MOL1         0.0783
      58    O14     17.442201   23.998291   21.335066 O.3        1 MOL1        -0.3740
      59    C18     15.705705   23.480960   19.710076 C.3        1 MOL1         0.0138
      60    H28     15.380257   22.685855   19.025580 H          1 MOL1         0.0794
      61    H29     16.167239   24.268729   19.099698 H          1 MOL1         0.0794
      62    O15     14.575549   23.999625   20.422712 O.3        1 MOL1        -0.5486
      63    H30     13.975378   24.416794   19.766635 H          1 MOL1         0.3769
      64    C19     23.622689   22.743851   20.936243 C.3        1 MOL1         0.2972
      65    H31     24.665747   22.988055   20.700262 H          1 MOL1         0.0751
      66    O16     23.446277   21.337750   21.209143 O.3        1 MOL1        -0.3740
      67    C20     23.151279   23.541867   22.177527 C.3        1 MOL1         0.1003
      68    H32     23.221594   24.607820   21.924174 H          1 MOL1         0.0783
      69    O17     23.985227   23.281092   23.317023 O.3        1 MOL1        -0.5519
      70    H33     24.214615   22.317307   23.307916 H          1 MOL1         0.3769
      71    C21     21.669937   23.232116   22.502356 C.3        1 MOL1         0.1053
      72    H34     21.596943   22.177682   22.799679 H          1 MOL1         0.0783
      73    O18     21.259590   24.071953   23.586951 O.3        1 MOL1        -0.5519
      74    H35     22.033109   24.086405   24.196377 H          1 MOL1         0.3769
      75    C22     20.775728   23.453723   21.249315 C.3        1 MOL1         0.1018
      76    H36     20.688083   24.531049   21.058849 H          1 MOL1         0.0783
      77    C23     21.365009   22.762555   19.988930 C.3        1 MOL1         0.1043
      78    H37     21.280109   21.680402   20.126542 H          1 MOL1         0.0783
      79    O19     22.763872   23.106127   19.833685 O.3        1 MOL1        -0.3740
      80    C24     20.613259   23.107059   18.679321 C.3        1 MOL1         0.0138
      81    H38     19.656481   22.567999   18.674323 H          1 MOL1         0.0794
      82    H39     21.200270   22.731610   17.830720 H          1 MOL1         0.0794
      83    O20     20.374501   24.511561   18.529856 O.3        1 MOL1        -0.5486
      84    H40     19.675410   24.761036   19.171955 H          1 MOL1         0.3769
      85    C25     25.219037   17.618536   21.177074 C.3        1 MOL1         0.2972
      86    H41     25.857155   16.729843   21.087870 H          1 MOL1         0.0751
      87    O21     23.830320   17.261945   21.358401 O.3        1 MOL1        -0.3740
      88    C26     25.673648   18.525462   22.349254 C.3        1 MOL1         0.1003
      89    H42     26.675303   18.899314   22.099646 H          1 MOL1         0.0783
      90    O22     25.747188   17.808636   23.589721 O.3        1 MOL1        -0.5519
      91    H43     24.838296   17.466935   23.783202 H          1 MOL1         0.3769
      92    C27     24.727524   19.744311   22.469067 C.3        1 MOL1         0.1053
      93    H44     23.728588   19.379113   22.742132 H          1 MOL1         0.0783
      94    O23     25.212575   20.623742   23.486959 O.3        1 MOL1        -0.5519
      95    H45     25.476413   20.035068   24.229443 H          1 MOL1         0.3769
      96    C28     24.620022   20.503887   21.121002 C.3        1 MOL1         0.1018
      97    H46     25.537416   21.091350   20.988120 H          1 MOL1         0.0783
      98    C29     24.424796   19.555977   19.900640 C.3        1 MOL1         0.1043
      99    H47     23.396555   19.180931   19.917249 H          1 MOL1         0.0783
     100    O24     25.322961   18.421159   19.981476 O.3        1 MOL1        -0.3740
     101    C30     24.623960   20.250228   18.531230 C.3        1 MOL1         0.0138
     102    H48     23.794027   20.950640   18.365703 H          1 MOL1         0.0794
     103    H49     24.562634   19.485589   17.745536 H          1 MOL1         0.0794
     104    O25     25.874751   20.943794   18.439808 O.3        1 MOL1        -0.5486
     105    H50     25.758332   21.828743   18.844409 H          1 MOL1         0.3769
     106    C31     21.206450   14.212689   22.246730 C.3        1 MOL1         0.2972
     107    H51     20.699461   13.283410   22.536576 H          1 MOL1         0.0751
     108    O26     20.303251   15.136863   21.610944 O.3        1 MOL1        -0.3740
     109    C32     21.803528   14.905021   23.494081 C.3        1 MOL1         0.1003
     110    H52     22.537971   14.215856   23.931175 H          1 MOL1         0.0783
     111    O27     20.780608   15.196316   24.464130 O.3        1 MOL1        -0.5519
     112    H53     20.000085   14.635799   24.230308 H          1 MOL1         0.3769
     113    C33     22.530909   16.205997   23.086758 C.3        1 MOL1         0.1053
     114    H54     21.773636   16.899160   22.709540 H          1 MOL1         0.0783
     115    O28     23.163558   16.764731   24.242089 O.3        1 MOL1        -0.5519
     116    H55     22.659533   16.407194   25.005605 H          1 MOL1         0.3769
     117    C34     23.556272   15.972855   21.946673 C.3        1 MOL1         0.1018
     118    H56     24.457306   15.509869   22.370555 H          1 MOL1         0.0783
     119    C35     22.984699   15.088182   20.800979 C.3        1 MOL1         0.1043
     120    H57     22.274445   15.699499   20.230505 H          1 MOL1         0.0783
     121    O29     22.285752   13.933166   21.330999 O.3        1 MOL1        -0.3740
     122    C36     24.063799   14.597554   19.806472 C.3        1 MOL1         0.0138
     123    H58     24.415194   15.458442   19.221562 H          1 MOL1         0.0794
     124    H59     23.599123   13.893229   19.103447 H          1 MOL1         0.0794
     125    O30     25.171511   13.979442   20.473243 O.3        1 MOL1        -0.5486
     126    H60     25.775724   13.627332   19.783580 H          1 MOL1         0.3769
     127    C1      19.526488   19.255986   18.594536 C.3        1 MOL1        -0.2398
     128    H1      18.640392   19.568921   18.027178 H          1 MOL1         0.0972
     129    H2      20.374854   19.866056   18.258853 H          1 MOL1         0.0972
     130    H3      19.737490   18.210591   18.339808 H          1 MOL1         0.0972
     131    C2      19.287521   19.422879   20.109000 C.3        1 MOL1        -0.1383
     132    H4      18.414193   18.829897   20.405285 H          1 MOL1         0.0961
     133    H5      19.042239   20.471207   20.319256 H          1 MOL1         0.0961
     134    C3      20.520646   18.998018   20.938403 C.3        1 MOL1        -0.1407
     135    H6      20.740444   17.935563   20.766309 H          1 MOL1         0.0961
     136    H7      21.395183   19.551428   20.585136 H          1 MOL1         0.0961
     137    C4      20.364429   19.261241   22.453973 C.3        1 MOL1        -0.1407
     138    H8      20.137597   20.320785   22.627430 H          1 MOL1         0.0961
     139    H9      21.332078   19.081260   22.937961 H          1 MOL1         0.0961
     140    C5      19.273680   18.372092   23.099335 C.3        1 MOL1        -0.1472
     141    H10     18.298207   18.617528   22.665298 H          1 MOL1         0.0961
     142    H11     19.467323   17.323030   22.854243 H          1 MOL1         0.0961
     143    C6      19.188843   18.526654   24.629346 C.3        1 MOL1         0.1190
     144    H12     19.118152   19.592441   24.869718 H          1 MOL1         0.0923
     145    C7      17.937119   17.812966   25.165208 C.3        1 MOL1        -0.2463
     146    H13     17.976574   16.735644   24.960684 H          1 MOL1         0.0972
     147    H14     17.026583   18.212350   24.702304 H          1 MOL1         0.0972
     148    H15     17.846206   17.951037   26.249307 H          1 MOL1         0.0972
     149    N1      20.416691   17.992429   25.311072 N.4        1 MOL1        -0.5974
     150    H16     21.267451   18.455150   24.977260 H          1 MOL1         0.3625
     151    H17     20.366305   18.111286   26.326130 H          1 MOL1         0.3625
     152    H18     20.518857   16.983637   25.117140 H          1 MOL1         0.3625
@<TRIPOS>BOND
    1     1     2    1
    2     1     3    1
    3     1     4    1
    4     4     5    1
    5     4     6    1
    6     6     7    1
    7     4     8    1
    8     8     9    1
    9     8    10    1
   10    10    11    1
   11     8    12    1
   12    12    13    1
   13    12    14    1
   14    14    15    1
   15     1    16    1
   16    14    16    1
   17    14    17    1
   18    17    18    1
   19    17    19    1
   20    17    20    1
   21    20    21    1
   22    22    23    1
   23    22    24    1
   24    22    25    1
   25    25    26    1
   26    25    27    1
   27    27    28    1
   28    25    29    1
   29    29    30    1
   30    29    31    1
   31    31    32    1
   32     3    33    1
   33    29    33    1
   34    33    34    1
   35    33    35    1
   36    35    36    1
   37    22    37    1
   38    35    37    1
   39    35    38    1
   40    38    39    1
   41    38    40    1
   42    38    41    1
   43    41    42    1
   44    43    44    1
   45    43    45    1
   46    43    46    1
   47    46    47    1
   48    46    48    1
   49    48    49    1
   50    46    50    1
   51    50    51    1
   52    50    52    1
   53    52    53    1
   54    24    54    1
   55    50    54    1
   56    54    55    1
   57    54    56    1
   58    56    57    1
   59    43    58    1
   60    56    58    1
   61    56    59    1
   62    59    60    1
   63    59    61    1
   64    59    62    1
   65    62    63    1
   66    64    65    1
   67    64    66    1
   68    64    67    1
   69    67    68    1
   70    67    69    1
   71    69    70    1
   72    67    71    1
   73    71    72    1
   74    71    73    1
   75    73    74    1
   76    45    75    1
   77    71    75    1
   78    75    76    1
   79    75    77    1
   80    77    78    1
   81    64    79    1
   82    77    79    1
   83    77    80    1
   84    80    81    1
   85    80    82    1
   86    80    83    1
   87    83    84    1
   88    85    86    1
   89    85    87    1
   90    85    88    1
   91    88    89    1
   92    88    90    1
   93    90    91    1
   94    88    92    1
   95    92    93    1
   96    92    94    1
   97    94    95    1
   98    66    96    1
   99    92    96    1
  100    96    97    1
  101    96    98    1
  102    98    99    1
  103    85   100    1
  104    98   100    1
  105    98   101    1
  106   101   102    1
  107   101   103    1
  108   101   104    1
  109   104   105    1
  110   106   107    1
  111    12   108    1
  112   106   108    1
  113   106   109    1
  114   109   110    1
  115   109   111    1
  116   111   112    1
  117   109   113    1
  118   113   114    1
  119   113   115    1
  120   115   116    1
  121    87   117    1
  122   113   117    1
  123   117   118    1
  124   117   119    1
  125   119   120    1
  126   106   121    1
  127   119   121    1
  128   119   122    1
  129   122   123    1
  130   122   124    1
  131   122   125    1
  132   125   126    1
  133   127   128    1
  134   127   129    1
  135   127   130    1
  136   127   131    1
  137   131   132    1
  138   131   133    1
  139   131   134    1
  140   134   135    1
  141   134   136    1
  142   134   137    1
  143   137   138    1
  144   137   139    1
  145   137   140    1
  146   140   141    1
  147   140   142    1
  148   140   143    1
  149   143   144    1
  150   143   145    1
  151   145   146    1
  152   145   147    1
  153   145   148    1
  154   143   149    1
  155   149   150    1
  156   149   151    1
  157   149   152    1
@<TRIPOS>SUBSTRUCTURE
       1 MOL1            1 RESIDUE      1      MOL     
       2 MOL1          152 RESIDUE      1      MOL     
@<SCITEGIC>MOL_PROPERTY
feprocess Rank
SciTegic.value.IntegerValue
1

@<SCITEGIC>MOL_PROPERTY
Conf_Id
SciTegic.value.IntegerValue
9

@<SCITEGIC>MOL_PROPERTY
Probability
SciTegic.value.DoubleValue
71.47

@<SCITEGIC>MOL_PROPERTY
G
SciTegic.value.DoubleValue
553.343

@<SCITEGIC>MOL_PROPERTY
E
SciTegic.value.DoubleValue
348.592

@<SCITEGIC>MOL_PROPERTY
-TS
SciTegic.value.DoubleValue
204.752

@<SCITEGIC>MOL_PROPERTY
U+W
SciTegic.value.DoubleValue
214.455

@<SCITEGIC>MOL_PROPERTY
U
SciTegic.value.DoubleValue
299.984

@<SCITEGIC>MOL_PROPERTY
W
SciTegic.value.DoubleValue
-85.526

@<SCITEGIC>MOL_PROPERTY
W(PB)
SciTegic.value.DoubleValue
-91.559

@<SCITEGIC>MOL_PROPERTY
W(SA)
SciTegic.value.DoubleValue
6.033

@<SCITEGIC>MOL_PROPERTY
Valence
SciTegic.value.DoubleValue
148.786

@<SCITEGIC>MOL_PROPERTY
Coulomb
SciTegic.value.DoubleValue
178.734

@<SCITEGIC>MOL_PROPERTY
VdW
SciTegic.value.DoubleValue
-27.536

@<SCITEGIC>MOL_PROPERTY
VdW6
SciTegic.value.DoubleValue
-188.399

@<SCITEGIC>MOL_PROPERTY
VdW12
SciTegic.value.DoubleValue
160.863

@<SCITEGIC>MOL_PROPERTY
Bond
SciTegic.value.DoubleValue
4.757

@<SCITEGIC>MOL_PROPERTY
Angle
SciTegic.value.DoubleValue
12.659

@<SCITEGIC>MOL_PROPERTY
Pdih
SciTegic.value.DoubleValue
131.369

@<SCITEGIC>MOL_PROPERTY
Idih
SciTegic.value.DoubleValue
0.000

@<SCITEGIC>MOL_PROPERTY
Tether
SciTegic.value.DoubleValue
0.000

@<TRIPOS>MOLECULE
CD_guest-s13_fast_vm2_rndm.mol2 : feprocess host+ligand conformer 2
         152         157           2
SMALL
USER_CHARGES
 
@<TRIPOS>ATOM
       1    C1      16.224138   15.168073   21.738560 C.3        1 MOL1         0.2972
       2    H1      15.137093   15.096873   21.874954 H          1 MOL1         0.0751
       3    O1      16.641330   16.522591   21.480458 O.3        1 MOL1        -0.3740
       4    C2      16.946960   14.675203   23.012946 C.3        1 MOL1         0.1003
       5    H2      16.685116   13.618952   23.157692 H          1 MOL1         0.0783
       6    O2      16.525784   15.435505   24.157588 O.3        1 MOL1        -0.5519
       7    H3      16.006395   16.204953   23.817265 H          1 MOL1         0.3769
       8    C3      18.478069   14.775970   22.838225 C.3        1 MOL1         0.1053
       9    H4      18.735910   15.838387   22.796308 H          1 MOL1         0.0783
      10    O3      19.127674   14.176708   23.962579 O.3        1 MOL1        -0.5519
      11    H5      18.638354   14.516433   24.745252 H          1 MOL1         0.3769
      12    C4      18.965679   14.118581   21.523026 C.3        1 MOL1         0.1018
      13    H6      19.029513   13.033048   21.675973 H          1 MOL1         0.0783
      14    C5      18.065594   14.442957   20.295365 C.3        1 MOL1         0.1043
      15    H7      18.289094   15.471934   19.989187 H          1 MOL1         0.0783
      16    O4      16.657083   14.351032   20.631898 O.3        1 MOL1        -0.3740
      17    C6      18.340609   13.537055   19.071654 C.3        1 MOL1         0.0138
      18    H8      19.325842   13.795734   18.660460 H          1 MOL1         0.0794
      19    H9      17.595318   13.758470   18.295811 H          1 MOL1         0.0794
      20    O5      18.306982   12.145942   19.413176 O.3        1 MOL1        -0.5486
      21    H10     18.416301   11.632410   18.583112 H          1 MOL1         0.3769
      22    C7      15.006407   20.240055   20.535948 C.3        1 MOL1         0.2972
      23    H11     14.374536   21.053135   20.156025 H          1 MOL1         0.0751
      24    O6      16.285003   20.732109   20.987229 O.3        1 MOL1        -0.3740
      25    C8      14.307733   19.479181   21.698481 C.3        1 MOL1         0.1003
      26    H12     13.382459   19.050245   21.292273 H          1 MOL1         0.0783
      27    O7      13.972679   20.350419   22.788524 O.3        1 MOL1        -0.5519
      28    H13     14.820896   20.734360   23.125160 H          1 MOL1         0.3769
      29    C9      15.195349   18.310858   22.193310 C.3        1 MOL1         0.1053
      30    H14     16.104524   18.736016   22.637425 H          1 MOL1         0.0783
      31    O8      14.490938   17.544666   23.176103 O.3        1 MOL1        -0.5519
      32    H15     14.055142   18.209082   23.755653 H          1 MOL1         0.3769
      33    C10     15.610205   17.404871   21.008743 C.3        1 MOL1         0.1018
      34    H16     14.726334   16.854669   20.659528 H          1 MOL1         0.0783
      35    C11     16.194657   18.221161   19.825282 C.3        1 MOL1         0.1043
      36    H17     17.146617   18.661492   20.145989 H          1 MOL1         0.0783
      37    O9      15.265017   19.280198   19.485132 O.3        1 MOL1        -0.3740
      38    C12     16.496233   17.384877   18.553790 C.3        1 MOL1         0.0138
      39    H18     17.531592   17.027017   18.612600 H          1 MOL1         0.0794
      40    H19     16.440550   18.045875   17.678582 H          1 MOL1         0.0794
      41    O10     15.613664   16.268114   18.384085 O.3        1 MOL1        -0.5486
      42    H20     15.830035   15.612384   19.086965 H          1 MOL1         0.3769
      43    C13     18.497895   24.046561   21.933635 C.3        1 MOL1         0.2972
      44    H21     18.910403   25.025781   22.209080 H          1 MOL1         0.0751
      45    O11     19.523787   23.139713   21.485673 O.3        1 MOL1        -0.3740
      46    C14     17.773031   23.415462   23.146639 C.3        1 MOL1         0.1003
      47    H22     16.945542   24.085047   23.415519 H          1 MOL1         0.0783
      48    O12     18.657395   23.272120   24.272476 O.3        1 MOL1        -0.5519
      49    H23     19.526751   23.667252   24.009125 H          1 MOL1         0.3769
      50    C15     17.183311   22.039660   22.767602 C.3        1 MOL1         0.1053
      51    H24     18.029458   21.364552   22.595400 H          1 MOL1         0.0783
      52    O13     16.384273   21.554259   23.853209 O.3        1 MOL1        -0.5519
      53    H25     16.629212   22.118228   24.619600 H          1 MOL1         0.3769
      54    C16     16.342185   22.090102   21.466634 C.3        1 MOL1         0.1018
      55    H26     15.346938   22.487927   21.705235 H          1 MOL1         0.0783
      56    C17     17.003574   22.938078   20.340679 C.3        1 MOL1         0.1043
      57    H27     17.829783   22.350065   19.921026 H          1 MOL1         0.0783
      58    O14     17.533073   24.181135   20.870150 O.3        1 MOL1        -0.3740
      59    C18     16.046887   23.270172   19.170753 C.3        1 MOL1         0.0138
      60    H28     15.856761   22.348829   18.603815 H          1 MOL1         0.0794
      61    H29     16.552846   23.970909   18.493089 H          1 MOL1         0.0794
      62    O15     14.806716   23.825067   19.626085 O.3        1 MOL1        -0.5486
      63    H30     14.288635   24.087681   18.834033 H          1 MOL1         0.3769
      64    C19     23.588255   22.845661   20.845237 C.3        1 MOL1         0.2972
      65    H31     24.647931   22.977619   20.591446 H          1 MOL1         0.0751
      66    O16     23.262925   21.452107   21.047564 O.3        1 MOL1        -0.3740
      67    C20     23.200053   23.674341   22.101146 C.3        1 MOL1         0.1003
      68    H32     23.330515   24.732380   21.838783 H          1 MOL1         0.0783
      69    O17     24.033410   23.378119   23.230530 O.3        1 MOL1        -0.5519
      70    H33     23.856385   22.435873   23.477594 H          1 MOL1         0.3769
      71    C21     21.707925   23.453739   22.448220 C.3        1 MOL1         0.1053
      72    H34     21.576703   22.403772   22.741727 H          1 MOL1         0.0783
      73    O18     21.334297   24.309104   23.533888 O.3        1 MOL1        -0.5519
      74    H35     22.091239   24.270990   24.160990 H          1 MOL1         0.3769
      75    C22     20.807064   23.730064   21.217096 C.3        1 MOL1         0.1018
      76    H36     20.737571   24.814932   21.066155 H          1 MOL1         0.0783
      77    C23     21.338509   23.070592   19.914233 C.3        1 MOL1         0.1043
      78    H37     21.182308   21.989691   19.992277 H          1 MOL1         0.0783
      79    O19     22.757202   23.328699   19.766600 O.3        1 MOL1        -0.3740
      80    C24     20.602571   23.528894   18.630117 C.3        1 MOL1         0.0138
      81    H38     19.637160   23.009069   18.577424 H          1 MOL1         0.0794
      82    H39     21.189077   23.206496   17.759537 H          1 MOL1         0.0794
      83    O20     20.387645   24.944377   18.581642 O.3        1 MOL1        -0.5486
      84    H40     19.636746   25.147153   19.181178 H          1 MOL1         0.3769
      85    C25     24.763584   17.712604   21.973568 C.3        1 MOL1         0.2972
      86    H41     25.374099   16.852702   22.277128 H          1 MOL1         0.0751
      87    O21     23.533645   17.296116   21.344840 O.3        1 MOL1        -0.3740
      88    C26     24.429254   18.594036   23.203182 C.3        1 MOL1         0.1003
      89    H42     25.383196   18.943493   23.619395 H          1 MOL1         0.0783
      90    O22     23.714826   17.859918   24.211347 O.3        1 MOL1        -0.5519
      91    H43     23.859791   16.900101   24.028881 H          1 MOL1         0.3769
      92    C27     23.605368   19.828561   22.779254 C.3        1 MOL1         0.1053
      93    H44     22.631140   19.472628   22.421981 H          1 MOL1         0.0783
      94    O23     23.427693   20.668580   23.922953 O.3        1 MOL1        -0.5519
      95    H45     23.244097   20.039834   24.655994 H          1 MOL1         0.3769
      96    C28     24.279782   20.606567   21.621954 C.3        1 MOL1         0.1018
      97    H46     25.122145   21.184740   22.024127 H          1 MOL1         0.0783
      98    C29     24.772947   19.664776   20.486321 C.3        1 MOL1         0.1043
      99    H47     23.892233   19.296711   19.944861 H          1 MOL1         0.0783
     100    O24     25.493020   18.532003   21.035692 O.3        1 MOL1        -0.3740
     101    C30     25.682044   20.371752   19.452767 C.3        1 MOL1         0.0138
     102    H48     25.064499   21.060084   18.859967 H          1 MOL1         0.0794
     103    H49     26.082258   19.616270   18.763392 H          1 MOL1         0.0794
     104    O25     26.751192   21.094167   20.076463 O.3        1 MOL1        -0.5486
     105    H50     27.327383   21.447878   19.364032 H          1 MOL1         0.3769
     106    C31     21.311063   13.815451   20.865112 C.3        1 MOL1         0.2972
     107    H51     20.934317   12.814962   20.615910 H          1 MOL1         0.0751
     108    O26     20.249051   14.709983   21.247635 O.3        1 MOL1        -0.3740
     109    C32     22.332027   13.757873   22.029343 C.3        1 MOL1         0.1003
     110    H52     23.180336   13.150632   21.687386 H          1 MOL1         0.0783
     111    O27     21.763828   13.147313   23.198482 O.3        1 MOL1        -0.5519
     112    H53     20.905869   13.605341   23.388203 H          1 MOL1         0.3769
     113    C33     22.864310   15.175121   22.360347 C.3        1 MOL1         0.1053
     114    H54     22.032227   15.770105   22.761498 H          1 MOL1         0.0783
     115    O28     23.894444   15.056225   23.347743 O.3        1 MOL1        -0.5519
     116    H55     23.567159   14.367999   23.971135 H          1 MOL1         0.3769
     117    C34     23.399908   15.884252   21.083704 C.3        1 MOL1         0.1018
     118    H56     24.363001   15.437598   20.805601 H          1 MOL1         0.0783
     119    C35     22.420919   15.762408   19.883401 C.3        1 MOL1         0.1043
     120    H57     21.545334   16.390336   20.090355 H          1 MOL1         0.0783
     121    O29     21.989261   14.389034   19.727852 O.3        1 MOL1        -0.3740
     122    C36     23.020996   16.249251   18.540504 C.3        1 MOL1         0.0138
     123    H58     23.089216   17.344687   18.562516 H          1 MOL1         0.0794
     124    H59     22.325845   15.984676   17.732736 H          1 MOL1         0.0794
     125    O30     24.315066   15.693856   18.276629 O.3        1 MOL1        -0.5486
     126    H60     24.955206   16.141094   18.870931 H          1 MOL1         0.3769
     127    C1      20.466412   19.159652   19.597875 C.3        1 MOL1        -0.2398
     128    H1      19.837279   18.388244   19.135869 H          1 MOL1         0.0972
     129    H2      20.493932   20.021820   18.920161 H          1 MOL1         0.0972
     130    H3      21.487216   18.768873   19.684552 H          1 MOL1         0.0972
     131    C2      19.924456   19.566297   20.983183 C.3        1 MOL1        -0.1383
     132    H4      18.954218   20.065338   20.862905 H          1 MOL1         0.0961
     133    H5      20.603614   20.302195   21.430698 H          1 MOL1         0.0961
     134    C3      19.770616   18.341154   21.913609 C.3        1 MOL1        -0.1407
     135    H6      19.085875   17.626955   21.439658 H          1 MOL1         0.0961
     136    H7      20.734238   17.822779   22.012829 H          1 MOL1         0.0961
     137    C4      19.229644   18.699340   23.320029 C.3        1 MOL1        -0.1407
     138    H8      18.980678   17.773233   23.854396 H          1 MOL1         0.0961
     139    H9      18.290283   19.254609   23.220920 H          1 MOL1         0.0961
     140    C5      20.252591   19.493598   24.167764 C.3        1 MOL1        -0.1472
     141    H10     21.179896   18.909812   24.216493 H          1 MOL1         0.0961
     142    H11     20.498912   20.446446   23.683581 H          1 MOL1         0.0961
     143    C6      19.775183   19.767624   25.606895 C.3        1 MOL1         0.1190
     144    H12     19.473576   18.817728   26.058679 H          1 MOL1         0.0923
     145    C7      20.922243   20.361468   26.439461 C.3        1 MOL1        -0.2463
     146    H13     21.269607   21.311695   26.013409 H          1 MOL1         0.0972
     147    H14     21.773675   19.670573   26.477619 H          1 MOL1         0.0972
     148    H15     20.598171   20.547276   27.470623 H          1 MOL1         0.0972
     149    N1      18.577584   20.672719   25.647757 N.4        1 MOL1        -0.5974
     150    H16     17.798323   20.297879   25.094248 H          1 MOL1         0.3625
     151    H17     18.245908   20.816629   26.604918 H          1 MOL1         0.3625
     152    H18     18.798356   21.600572   25.252540 H          1 MOL1         0.3625
@<TRIPOS>BOND
    1     1     2    1
    2     1     3    1
    3     1     4    1
    4     4     5    1
    5     4     6    1
    6     6     7    1
    7     4     8    1
    8     8     9    1
    9     8    10    1
   10    10    11    1
   11     8    12    1
   12    12    13    1
   13    12    14    1
   14    14    15    1
   15     1    16    1
   16    14    16    1
   17    14    17    1
   18    17    18    1
   19    17    19    1
   20    17    20    1
   21    20    21    1
   22    22    23    1
   23    22    24    1
   24    22    25    1
   25    25    26    1
   26    25    27    1
   27    27    28    1
   28    25    29    1
   29    29    30    1
   30    29    31    1
   31    31    32    1
   32     3    33    1
   33    29    33    1
   34    33    34    1
   35    33    35    1
   36    35    36    1
   37    22    37    1
   38    35    37    1
   39    35    38    1
   40    38    39    1
   41    38    40    1
   42    38    41    1
   43    41    42    1
   44    43    44    1
   45    43    45    1
   46    43    46    1
   47    46    47    1
   48    46    48    1
   49    48    49    1
   50    46    50    1
   51    50    51    1
   52    50    52    1
   53    52    53    1
   54    24    54    1
   55    50    54    1
   56    54    55    1
   57    54    56    1
   58    56    57    1
   59    43    58    1
   60    56    58    1
   61    56    59    1
   62    59    60    1
   63    59    61    1
   64    59    62    1
   65    62    63    1
   66    64    65    1
   67    64    66    1
   68    64    67    1
   69    67    68    1
   70    67    69    1
   71    69    70    1
   72    67    71    1
   73    71    72    1
   74    71    73    1
   75    73    74    1
   76    45    75    1
   77    71    75    1
   78    75    76    1
   79    75    77    1
   80    77    78    1
   81    64    79    1
   82    77    79    1
   83    77    80    1
   84    80    81    1
   85    80    82    1
   86    80    83    1
   87    83    84    1
   88    85    86    1
   89    85    87    1
   90    85    88    1
   91    88    89    1
   92    88    90    1
   93    90    91    1
   94    88    92    1
   95    92    93    1
   96    92    94    1
   97    94    95    1
   98    66    96    1
   99    92    96    1
  100    96    97    1
  101    96    98    1
  102    98    99    1
  103    85   100    1
  104    98   100    1
  105    98   101    1
  106   101   102    1
  107   101   103    1
  108   101   104    1
  109   104   105    1
  110   106   107    1
  111    12   108    1
  112   106   108    1
  113   106   109    1
  114   109   110    1
  115   109   111    1
  116   111   112    1
  117   109   113    1
  118   113   114    1
  119   113   115    1
  120   115   116    1
  121    87   117    1
  122   113   117    1
  123   117   118    1
  124   117   119    1
  125   119   120    1
  126   106   121    1
  127   119   121    1
  128   119   122    1
  129   122   123    1
  130   122   124    1
  131   122   125    1
  132   125   126    1
  133   127   128    1
  134   127   129    1
  135   127   130    1
  136   127   131    1
  137   131   132    1
  138   131   133    1
  139   131   134    1
  140   134   135    1
  141   134   136    1
  142   134   137    1
  143   137   138    1
  144   137   139    1
  145   137   140    1
  146   140   141    1
  147   140   142    1
  148   140   143    1
  149   143   144    1
  150   143   145    1
  151   145   146    1
  152   145   147    1
  153   145   148    1
  154   143   149    1
  155   149   150    1
  156   149   151    1
  157   149   152    1
@<TRIPOS>SUBSTRUCTURE
       1 MOL1            1 RESIDUE      1      MOL     
       2 MOL1          152 RESIDUE      1      MOL     
@<SCITEGIC>MOL_PROPERTY
feprocess Rank
SciTegic.value.IntegerValue
2

@<SCITEGIC>MOL_PROPERTY
Conf_Id
SciTegic.value.IntegerValue
540

@<SCITEGIC>MOL_PROPERTY
Probability
SciTegic.value.DoubleValue
8.98

@<SCITEGIC>MOL_PROPERTY
G
SciTegic.value.DoubleValue
554.580

@<SCITEGIC>MOL_PROPERTY
E
SciTegic.value.DoubleValue
350.204

@<SCITEGIC>MOL_PROPERTY
-TS
SciTegic.value.DoubleValue
204.376

@<SCITEGIC>MOL_PROPERTY
U+W
SciTegic.value.DoubleValue
216.068

@<SCITEGIC>MOL_PROPERTY
U
SciTegic.value.DoubleValue
298.968

@<SCITEGIC>MOL_PROPERTY
W
SciTegic.value.DoubleValue
-82.900

@<SCITEGIC>MOL_PROPERTY
W(PB)
SciTegic.value.DoubleValue
-89.038

@<SCITEGIC>MOL_PROPERTY
W(SA)
SciTegic.value.DoubleValue
6.138

@<SCITEGIC>MOL_PROPERTY
Valence
SciTegic.value.DoubleValue
149.233

@<SCITEGIC>MOL_PROPERTY
Coulomb
SciTegic.value.DoubleValue
175.414

@<SCITEGIC>MOL_PROPERTY
VdW
SciTegic.value.DoubleValue
-25.679

@<SCITEGIC>MOL_PROPERTY
VdW6
SciTegic.value.DoubleValue
-185.673

@<SCITEGIC>MOL_PROPERTY
VdW12
SciTegic.value.DoubleValue
159.994

@<SCITEGIC>MOL_PROPERTY
Bond
SciTegic.value.DoubleValue
4.678

@<SCITEGIC>MOL_PROPERTY
Angle
SciTegic.value.DoubleValue
12.562

@<SCITEGIC>MOL_PROPERTY
Pdih
SciTegic.value.DoubleValue
131.993

@<SCITEGIC>MOL_PROPERTY
Idih
SciTegic.value.DoubleValue
0.000

@<SCITEGIC>MOL_PROPERTY
Tether
SciTegic.value.DoubleValue
0.000

@<TRIPOS>MOLECULE
CD_guest-s13_fast_vm2_rndm.mol2 : feprocess host+ligand conformer 3
         152         157           2
SMALL
USER_CHARGES
 
@<TRIPOS>ATOM
       1    C1      16.137222   15.083499   20.738533 C.3        1 MOL1         0.2972
       2    H1      15.104154   14.915619   20.407569 H          1 MOL1         0.0751
       3    O1      16.368008   16.457467   21.110176 O.3        1 MOL1        -0.3740
       4    C2      16.474371   14.204520   21.970361 C.3        1 MOL1         0.1003
       5    H2      16.358588   13.155166   21.669488 H          1 MOL1         0.0783
       6    O2      15.585675   14.482868   23.064367 O.3        1 MOL1        -0.5519
       7    H3      15.519396   15.467618   23.152751 H          1 MOL1         0.3769
       8    C3      17.946193   14.420995   22.399857 C.3        1 MOL1         0.1053
       9    H4      18.047222   15.452215   22.764229 H          1 MOL1         0.0783
      10    O3      18.287307   13.505322   23.446045 O.3        1 MOL1        -0.5519
      11    H5      17.529403   13.536619   24.071315 H          1 MOL1         0.3769
      12    C4      18.910011   14.232752   21.202531 C.3        1 MOL1         0.1018
      13    H6      18.951761   13.162436   20.961503 H          1 MOL1         0.0783
      14    C5      18.452565   15.033224   19.949955 C.3        1 MOL1         0.1043
      15    H7      18.551054   16.101488   20.169429 H          1 MOL1         0.0783
      16    O4      17.061050   14.740049   19.682313 O.3        1 MOL1        -0.3740
      17    C6      19.268993   14.766314   18.659787 C.3        1 MOL1         0.0138
      18    H8      20.138827   15.434442   18.652967 H          1 MOL1         0.0794
      19    H9      18.651409   15.039333   17.793749 H          1 MOL1         0.0794
      20    O5      19.710195   13.410154   18.539365 O.3        1 MOL1        -0.5486
      21    H10     20.577578   13.354355   19.000518 H          1 MOL1         0.3769
      22    C7      14.732889   20.227234   21.062551 C.3        1 MOL1         0.2972
      23    H11     14.107996   21.127144   20.998141 H          1 MOL1         0.0751
      24    O6      16.140930   20.562703   21.040038 O.3        1 MOL1        -0.3740
      25    C8      14.392899   19.403171   22.334337 C.3        1 MOL1         0.1003
      26    H12     13.356073   19.058763   22.225932 H          1 MOL1         0.0783
      27    O7      14.492408   20.183303   23.534246 O.3        1 MOL1        -0.5519
      28    H13     15.446191   20.428851   23.636088 H          1 MOL1         0.3769
      29    C9      15.300424   18.154015   22.414256 C.3        1 MOL1         0.1053
      30    H14     16.335556   18.492081   22.547219 H          1 MOL1         0.0783
      31    O8      14.912972   17.344281   23.529031 O.3        1 MOL1        -0.5519
      32    H15     14.776615   17.975557   24.270237 H          1 MOL1         0.3769
      33    C10     15.217838   17.322324   21.110291 C.3        1 MOL1         0.1018
      34    H16     14.276519   16.757155   21.126313 H          1 MOL1         0.0783
      35    C11     15.297765   18.188984   19.820360 C.3        1 MOL1         0.1043
      36    H17     16.338021   18.507808   19.692132 H          1 MOL1         0.0783
      37    O9      14.461925   19.367205   19.936206 O.3        1 MOL1        -0.3740
      38    C12     14.892503   17.424505   18.537140 C.3        1 MOL1         0.0138
      39    H18     15.677519   16.692720   18.303842 H          1 MOL1         0.0794
      40    H19     14.853191   18.137135   17.702469 H          1 MOL1         0.0794
      41    O10     13.632964   16.755901   18.680869 O.3        1 MOL1        -0.5486
      42    H20     13.410958   16.349444   17.814796 H          1 MOL1         0.3769
      43    C13     18.736018   23.749128   21.864495 C.3        1 MOL1         0.2972
      44    H21     19.141775   24.710078   22.204345 H          1 MOL1         0.0751
      45    O11     19.681002   23.042485   21.032729 O.3        1 MOL1        -0.3740
      46    C14     18.354105   22.861584   23.080976 C.3        1 MOL1         0.1003
      47    H22     17.617090   23.424159   23.668873 H          1 MOL1         0.0783
      48    O12     19.486734   22.562827   23.913049 O.3        1 MOL1        -0.5519
      49    H23     20.125850   23.307583   23.811642 H          1 MOL1         0.3769
      50    C15     17.693235   21.544641   22.617280 C.3        1 MOL1         0.1053
      51    H24     18.444669   20.968862   22.067903 H          1 MOL1         0.0783
      52    O13     17.269820   20.814786   23.771749 O.3        1 MOL1        -0.5519
      53    H25     18.032344   20.879554   24.390173 H          1 MOL1         0.3769
      54    C16     16.506360   21.815727   21.660894 C.3        1 MOL1         0.1018
      55    H26     15.678148   22.242552   22.242148 H          1 MOL1         0.0783
      56    C17     16.906413   22.799281   20.526684 C.3        1 MOL1         0.1043
      57    H27     17.619626   22.290441   19.865004 H          1 MOL1         0.0783
      58    O14     17.537391   23.975599   21.091666 O.3        1 MOL1        -0.3740
      59    C18     15.710410   23.257975   19.658025 C.3        1 MOL1         0.0138
      60    H28     15.380080   22.409039   19.044193 H          1 MOL1         0.0794
      61    H29     16.056882   24.042131   18.971560 H          1 MOL1         0.0794
      62    O15     14.617015   23.737047   20.451648 O.3        1 MOL1        -0.5486
      63    H30     13.934314   24.086418   19.838136 H          1 MOL1         0.3769
      64    C19     23.753304   22.831951   20.509402 C.3        1 MOL1         0.2972
      65    H31     24.818901   22.930098   20.265202 H          1 MOL1         0.0751
      66    O16     23.409279   21.465485   20.836438 O.3        1 MOL1        -0.3740
      67    C20     23.345401   23.792156   21.656396 C.3        1 MOL1         0.1003
      68    H32     23.449559   24.813943   21.268033 H          1 MOL1         0.0783
      69    O17     24.187488   23.659258   22.809982 O.3        1 MOL1        -0.5519
      70    H33     24.007216   22.763826   23.191492 H          1 MOL1         0.3769
      71    C21     21.857576   23.578129   22.024004 C.3        1 MOL1         0.1053
      72    H34     21.748173   22.558876   22.418181 H          1 MOL1         0.0783
      73    O18     21.494171   24.528902   23.032165 O.3        1 MOL1        -0.5519
      74    H35     22.286938   24.599554   23.611763 H          1 MOL1         0.3769
      75    C22     20.938880   23.710263   20.772967 C.3        1 MOL1         0.1018
      76    H36     20.782247   24.773698   20.549515 H          1 MOL1         0.0783
      77    C23     21.523633   23.008494   19.513006 C.3        1 MOL1         0.1043
      78    H37     21.349561   21.934371   19.629855 H          1 MOL1         0.0783
      79    O19     22.951139   23.225024   19.379048 O.3        1 MOL1        -0.3740
      80    C24     20.835575   23.452797   18.200297 C.3        1 MOL1         0.0138
      81    H38     19.785610   23.132079   18.231100 H          1 MOL1         0.0794
      82    H39     21.315198   22.933939   17.359737 H          1 MOL1         0.0794
      83    O20     20.902512   24.871673   18.011351 O.3        1 MOL1        -0.5486
      84    H40     20.482573   25.078680   17.148215 H          1 MOL1         0.3769
      85    C25     24.752650   17.857685   22.329837 C.3        1 MOL1         0.2972
      86    H41     25.315817   17.023799   22.768240 H          1 MOL1         0.0751
      87    O21     23.519421   17.409393   21.729705 O.3        1 MOL1        -0.3740
      88    C26     24.431213   18.912658   23.416084 C.3        1 MOL1         0.1003
      89    H42     25.390705   19.282926   23.800301 H          1 MOL1         0.0783
      90    O22     23.677872   18.346818   24.501080 O.3        1 MOL1        -0.5519
      91    H43     23.720771   17.364346   24.405805 H          1 MOL1         0.3769
      92    C27     23.663689   20.107210   22.808039 C.3        1 MOL1         0.1053
      93    H44     22.680649   19.751278   22.481770 H          1 MOL1         0.0783
      94    O23     23.499175   21.098041   23.824413 O.3        1 MOL1        -0.5519
      95    H45     23.203564   20.590958   24.614575 H          1 MOL1         0.3769
      96    C28     24.385313   20.690030   21.564974 C.3        1 MOL1         0.1018
      97    H46     25.235431   21.299739   21.898345 H          1 MOL1         0.0783
      98    C29     24.877548   19.580793   20.590314 C.3        1 MOL1         0.1043
      99    H47     24.000227   19.167849   20.078394 H          1 MOL1         0.0783
     100    O24     25.538589   18.509959   21.310741 O.3        1 MOL1        -0.3740
     101    C30     25.836953   20.107149   19.496532 C.3        1 MOL1         0.0138
     102    H48     25.260555   20.729346   18.798481 H          1 MOL1         0.0794
     103    H49     26.224330   19.251040   18.927999 H          1 MOL1         0.0794
     104    O25     26.917479   20.870364   20.047288 O.3        1 MOL1        -0.5486
     105    H50     27.522705   21.105661   19.310424 H          1 MOL1         0.3769
     106    C31     21.315307   13.873877   21.451600 C.3        1 MOL1         0.2972
     107    H51     21.007225   12.830082   21.310469 H          1 MOL1         0.0751
     108    O26     20.183153   14.743098   21.636820 O.3        1 MOL1        -0.3740
     109    C32     22.193694   13.992641   22.719989 C.3        1 MOL1         0.1003
     110    H52     23.067635   13.343065   22.580279 H          1 MOL1         0.0783
     111    O27     21.458361   13.560277   23.876314 O.3        1 MOL1        -0.5519
     112    H53     20.508949   13.783767   23.712755 H          1 MOL1         0.3769
     113    C33     22.698847   15.442293   22.915686 C.3        1 MOL1         0.1053
     114    H54     21.833458   16.075099   23.151283 H          1 MOL1         0.0783
     115    O28     23.626215   15.460270   24.005819 O.3        1 MOL1        -0.5519
     116    H55     23.218928   14.882340   24.690811 H          1 MOL1         0.3769
     117    C34     23.358809   15.981532   21.618144 C.3        1 MOL1         0.1018
     118    H56     24.323916   15.479443   21.471674 H          1 MOL1         0.0783
     119    C35     22.469235   15.736445   20.370536 C.3        1 MOL1         0.1043
     120    H57     21.573453   16.363167   20.461723 H          1 MOL1         0.0783
     121    O29     22.072310   14.343518   20.315258 O.3        1 MOL1        -0.3740
     122    C36     23.156064   16.117915   19.035422 C.3        1 MOL1         0.0138
     123    H58     23.162037   17.211769   18.948671 H          1 MOL1         0.0794
     124    H59     22.552022   15.729181   18.205096 H          1 MOL1         0.0794
     125    O30     24.497537   15.626035   18.939543 O.3        1 MOL1        -0.5486
     126    H60     25.051603   16.160321   19.548784 H          1 MOL1         0.3769
     127    C1      19.432053   17.856456   24.436475 C.3        1 MOL1        -0.2398
     128    H1      19.869002   18.069802   25.420437 H          1 MOL1         0.0972
     129    H2      18.372861   18.144486   24.466154 H          1 MOL1         0.0972
     130    H3      19.488125   16.772631   24.271648 H          1 MOL1         0.0972
     131    C2      20.186301   18.624288   23.331448 C.3        1 MOL1        -0.1383
     132    H4      21.238025   18.316212   23.338431 H          1 MOL1         0.0961
     133    H5      20.166669   19.701248   23.550727 H          1 MOL1         0.0961
     134    C3      19.574369   18.355244   21.942359 C.3        1 MOL1        -0.1407
     135    H6      19.628556   17.282013   21.733199 H          1 MOL1         0.0961
     136    H7      18.508778   18.616424   21.964707 H          1 MOL1         0.0961
     137    C4      20.276808   19.141250   20.811256 C.3        1 MOL1        -0.1407
     138    H8      21.321225   18.813215   20.733400 H          1 MOL1         0.0961
     139    H9      20.301058   20.210037   21.063962 H          1 MOL1         0.0961
     140    C5      19.542920   18.938388   19.462750 C.3        1 MOL1        -0.1472
     141    H10     19.631778   17.891655   19.148347 H          1 MOL1         0.0961
     142    H11     18.475024   19.130918   19.622252 H          1 MOL1         0.0961
     143    C6      20.025378   19.864064   18.326963 C.3        1 MOL1         0.1190
     144    H12     19.920645   20.896996   18.668498 H          1 MOL1         0.0923
     145    C7      21.496899   19.612668   17.956128 C.3        1 MOL1        -0.2463
     146    H13     21.652905   18.575842   17.635027 H          1 MOL1         0.0972
     147    H14     22.161356   19.817755   18.802787 H          1 MOL1         0.0972
     148    H15     21.807296   20.271472   17.135785 H          1 MOL1         0.0972
     149    N1      19.151897   19.734256   17.109989 N.4        1 MOL1        -0.5974
     150    H16     19.189775   18.787512   16.723196 H          1 MOL1         0.3625
     151    H17     18.172315   19.942890   17.322836 H          1 MOL1         0.3625
     152    H18     19.447042   20.375278   16.368033 H          1 MOL1         0.3625
@<TRIPOS>BOND
    1     1     2    1
    2     1     3    1
    3     1     4    1
    4     4     5    1
    5     4     6    1
    6     6     7    1
    7     4     8    1
    8     8     9    1
    9     8    10    1
   10    10    11    1
   11     8    12    1
   12    12    13    1
   13    12    14    1
   14    14    15    1
   15     1    16    1
   16    14    16    1
   17    14    17    1
   18    17    18    1
   19    17    19    1
   20    17    20    1
   21    20    21    1
   22    22    23    1
   23    22    24    1
   24    22    25    1
   25    25    26    1
   26    25    27    1
   27    27    28    1
   28    25    29    1
   29    29    30    1
   30    29    31    1
   31    31    32    1
   32     3    33    1
   33    29    33    1
   34    33    34    1
   35    33    35    1
   36    35    36    1
   37    22    37    1
   38    35    37    1
   39    35    38    1
   40    38    39    1
   41    38    40    1
   42    38    41    1
   43    41    42    1
   44    43    44    1
   45    43    45    1
   46    43    46    1
   47    46    47    1
   48    46    48    1
   49    48    49    1
   50    46    50    1
   51    50    51    1
   52    50    52    1
   53    52    53    1
   54    24    54    1
   55    50    54    1
   56    54    55    1
   57    54    56    1
   58    56    57    1
   59    43    58    1
   60    56    58    1
   61    56    59    1
   62    59    60    1
   63    59    61    1
   64    59    62    1
   65    62    63    1
   66    64    65    1
   67    64    66    1
   68    64    67    1
   69    67    68    1
   70    67    69    1
   71    69    70    1
   72    67    71    1
   73    71    72    1
   74    71    73    1
   75    73    74    1
   76    45    75    1
   77    71    75    1
   78    75    76    1
   79    75    77    1
   80    77    78    1
   81    64    79    1
   82    77    79    1
   83    77    80    1
   84    80    81    1
   85    80    82    1
   86    80    83    1
   87    83    84    1
   88    85    86    1
   89    85    87    1
   90    85    88    1
   91    88    89    1
   92    88    90    1
   93    90    91    1
   94    88    92    1
   95    92    93    1
   96    92    94    1
   97    94    95    1
   98    66    96    1
   99    92    96    1
  100    96    97    1
  101    96    98    1
  102    98    99    1
  103    85   100    1
  104    98   100    1
  105    98   101    1
  106   101   102    1
  107   101   103    1
  108   101   104    1
  109   104   105    1
  110   106   107    1
  111    12   108    1
  112   106   108    1
  113   106   109    1
  114   109   110    1
  115   109   111    1
  116   111   112    1
  117   109   113    1
  118   113   114    1
  119   113   115    1
  120   115   116    1
  121    87   117    1
  122   113   117    1
  123   117   118    1
  124   117   119    1
  125   119   120    1
  126   106   121    1
  127   119   121    1
  128   119   122    1
  129   122   123    1
  130   122   124    1
  131   122   125    1
  132   125   126    1
  133   127   128    1
  134   127   129    1
  135   127   130    1
  136   127   131    1
  137   131   132    1
  138   131   133    1
  139   131   134    1
  140   134   135    1
  141   134   136    1
  142   134   137    1
  143   137   138    1
  144   137   139    1
  145   137   140    1
  146   140   141    1
  147   140   142    1
  148   140   143    1
  149   143   144    1
  150   143   145    1
  151   145   146    1
  152   145   147    1
  153   145   148    1
  154   143   149    1
  155   149   150    1
  156   149   151    1
  157   149   152    1
@<TRIPOS>SUBSTRUCTURE
       1 MOL1            1 RESIDUE      1      MOL     
       2 MOL1          152 RESIDUE      1      MOL     
@<SCITEGIC>MOL_PROPERTY
feprocess Rank
SciTegic.value.IntegerValue
3

@<SCITEGIC>MOL_PROPERTY
Conf_Id
SciTegic.value.IntegerValue
982

@<SCITEGIC>MOL_PROPERTY
Probability
SciTegic.value.DoubleValue
7.06

@<SCITEGIC>MOL_PROPERTY
G
SciTegic.value.DoubleValue
554.723

@<SCITEGIC>MOL_PROPERTY
E
SciTegic.value.DoubleValue
350.937

@<SCITEGIC>MOL_PROPERTY
-TS
SciTegic.value.DoubleValue
203.786

@<SCITEGIC>MOL_PROPERTY
U+W
SciTegic.value.DoubleValue
216.801

@<SCITEGIC>MOL_PROPERTY
U
SciTegic.value.DoubleValue
309.860

@<SCITEGIC>MOL_PROPERTY
W
SciTegic.value.DoubleValue
-93.059

@<SCITEGIC>MOL_PROPERTY
W(PB)
SciTegic.value.DoubleValue
-99.090

@<SCITEGIC>MOL_PROPERTY
W(SA)
SciTegic.value.DoubleValue
6.032

@<SCITEGIC>MOL_PROPERTY
Valence
SciTegic.value.DoubleValue
147.080

@<SCITEGIC>MOL_PROPERTY
Coulomb
SciTegic.value.DoubleValue
190.306

@<SCITEGIC>MOL_PROPERTY
VdW
SciTegic.value.DoubleValue
-27.526

@<SCITEGIC>MOL_PROPERTY
VdW6
SciTegic.value.DoubleValue
-185.320

@<SCITEGIC>MOL_PROPERTY
VdW12
SciTegic.value.DoubleValue
157.794

@<SCITEGIC>MOL_PROPERTY
Bond
SciTegic.value.DoubleValue
4.744

@<SCITEGIC>MOL_PROPERTY
Angle
SciTegic.value.DoubleValue
12.756

@<SCITEGIC>MOL_PROPERTY
Pdih
SciTegic.value.DoubleValue
129.580

@<SCITEGIC>MOL_PROPERTY
Idih
SciTegic.value.DoubleValue
0.000

@<SCITEGIC>MOL_PROPERTY
Tether
SciTegic.value.DoubleValue
0.000

@<TRIPOS>MOLECULE
CD_guest-s13_fast_vm2_rndm.mol2 : feprocess host+ligand conformer 4
         152         157           2
SMALL
USER_CHARGES
 
@<TRIPOS>ATOM
       1    C1      16.448223   15.418698   22.076058 C.3        1 MOL1         0.2972
       2    H1      15.386174   15.381805   22.350298 H          1 MOL1         0.0751
       3    O1      16.804068   16.684125   21.487805 O.3        1 MOL1        -0.3740
       4    C2      17.330186   15.206981   23.328617 C.3        1 MOL1         0.1003
       5    H2      17.097501   14.211386   23.728686 H          1 MOL1         0.0783
       6    O2      17.055873   16.203985   24.329893 O.3        1 MOL1        -0.5519
       7    H3      16.178091   16.599393   24.103532 H          1 MOL1         0.3769
       8    C3      18.825646   15.245196   22.941903 C.3        1 MOL1         0.1053
       9    H4      19.051071   16.261155   22.603415 H          1 MOL1         0.0783
      10    O3      19.611712   14.936299   24.097038 O.3        1 MOL1        -0.5519
      11    H5      19.040078   15.164753   24.862545 H          1 MOL1         0.3769
      12    C4      19.153457   14.282099   21.771425 C.3        1 MOL1         0.1018
      13    H6      19.204608   13.256287   22.159977 H          1 MOL1         0.0783
      14    C5      18.115766   14.369686   20.614900 C.3        1 MOL1         0.1043
      15    H7      18.293920   15.309403   20.077349 H          1 MOL1         0.0783
      16    O4      16.759755   14.376130   21.128814 O.3        1 MOL1        -0.3740
      17    C6      18.246338   13.224034   19.583077 C.3        1 MOL1         0.0138
      18    H8      19.173568   13.372923   19.013185 H          1 MOL1         0.0794
      19    H9      17.411840   13.294735   18.872545 H          1 MOL1         0.0794
      20    O5      18.262327   11.934179   20.207308 O.3        1 MOL1        -0.5486
      21    H10     18.269104   11.258256   19.494720 H          1 MOL1         0.3769
      22    C7      14.906756   20.270644   20.500593 C.3        1 MOL1         0.2972
      23    H11     14.207660   21.018855   20.105185 H          1 MOL1         0.0751
      24    O6      16.131073   20.872288   20.966252 O.3        1 MOL1        -0.3740
      25    C8      14.279688   19.508826   21.698475 C.3        1 MOL1         0.1003
      26    H12     13.369696   19.014188   21.334681 H          1 MOL1         0.0783
      27    O7      13.932693   20.411232   22.761514 O.3        1 MOL1        -0.5519
      28    H13     14.684546   21.046673   22.873632 H          1 MOL1         0.3769
      29    C9      15.245642   18.413756   22.215470 C.3        1 MOL1         0.1053
      30    H14     16.127322   18.915735   22.630437 H          1 MOL1         0.0783
      31    O8      14.600787   17.652109   23.242509 O.3        1 MOL1        -0.5519
      32    H15     14.115357   18.316682   23.781850 H          1 MOL1         0.3769
      33    C10     15.704751   17.498789   21.048294 C.3        1 MOL1         0.1018
      34    H16     14.855845   16.885185   20.719345 H          1 MOL1         0.0783
      35    C11     16.230932   18.322747   19.845154 C.3        1 MOL1         0.1043
      36    H17     17.151177   18.834234   20.153338 H          1 MOL1         0.0783
      37    O9      15.237796   19.307433   19.475124 O.3        1 MOL1        -0.3740
      38    C12     16.585438   17.465040   18.603463 C.3        1 MOL1         0.0138
      39    H18     17.595495   17.058602   18.742042 H          1 MOL1         0.0794
      40    H19     16.620785   18.119650   17.722515 H          1 MOL1         0.0794
      41    O10     15.666069   16.388160   18.383658 O.3        1 MOL1        -0.5486
      42    H20     15.787096   15.746048   19.117715 H          1 MOL1         0.3769
      43    C13     18.360121   24.303563   21.000931 C.3        1 MOL1         0.2972
      44    H21     18.807799   25.304009   20.941765 H          1 MOL1         0.0751
      45    O11     19.370701   23.276033   21.118097 O.3        1 MOL1        -0.3740
      46    C14     17.354850   24.201377   22.178416 C.3        1 MOL1         0.1003
      47    H22     16.516194   24.870904   21.946362 H          1 MOL1         0.0783
      48    O12     17.932601   24.607558   23.426897 O.3        1 MOL1        -0.5519
      49    H23     18.647325   23.955959   23.637324 H          1 MOL1         0.3769
      50    C15     16.802071   22.759851   22.265354 C.3        1 MOL1         0.1053
      51    H24     17.635627   22.090151   22.509551 H          1 MOL1         0.0783
      52    O13     15.807101   22.680341   23.290995 O.3        1 MOL1        -0.5519
      53    H25     16.168846   23.201935   24.041498 H          1 MOL1         0.3769
      54    C16     16.197285   22.309582   20.911985 C.3        1 MOL1         0.1018
      55    H26     15.202498   22.764954   20.819186 H          1 MOL1         0.0783
      56    C17     17.072640   22.686885   19.679119 C.3        1 MOL1         0.1043
      57    H27     17.914972   21.987066   19.631025 H          1 MOL1         0.0783
      58    O14     17.597592   24.033452   19.805800 O.3        1 MOL1        -0.3740
      59    C18     16.319022   22.577777   18.332004 C.3        1 MOL1         0.0138
      60    H28     16.148961   21.515204   18.112349 H          1 MOL1         0.0794
      61    H29     16.964119   22.975156   17.536984 H          1 MOL1         0.0794
      62    O15     15.067496   23.275881   18.353746 O.3        1 MOL1        -0.5486
      63    H30     14.678182   23.217223   17.453968 H          1 MOL1         0.3769
      64    C19     23.285725   22.469040   22.272486 C.3        1 MOL1         0.2972
      65    H31     24.301937   22.547683   22.678879 H          1 MOL1         0.0751
      66    O16     23.129373   21.266726   21.487092 O.3        1 MOL1        -0.3740
      67    C20     22.247956   22.488998   23.427515 C.3        1 MOL1         0.1003
      68    H32     22.408731   23.421802   23.983727 H          1 MOL1         0.0783
      69    O17     22.406352   21.375585   24.322256 O.3        1 MOL1        -0.5519
      70    H33     23.350644   21.093210   24.266508 H          1 MOL1         0.3769
      71    C21     20.803823   22.498129   22.885908 C.3        1 MOL1         0.1053
      72    H34     20.628996   21.538058   22.392837 H          1 MOL1         0.0783
      73    O18     19.912024   22.641663   23.993086 O.3        1 MOL1        -0.5519
      74    H35     20.309387   22.076893   24.693846 H          1 MOL1         0.3769
      75    C22     20.577590   23.611613   21.834945 C.3        1 MOL1         0.1018
      76    H36     20.504201   24.581050   22.345488 H          1 MOL1         0.0783
      77    C23     21.715219   23.645040   20.778780 C.3        1 MOL1         0.1043
      78    H37     21.596994   22.762534   20.139841 H          1 MOL1         0.0783
      79    O19     23.017320   23.600625   21.416552 O.3        1 MOL1        -0.3740
      80    C24     21.661126   24.886704   19.857230 C.3        1 MOL1         0.0138
      81    H38     20.792766   24.788022   19.191691 H          1 MOL1         0.0794
      82    H39     22.558450   24.892708   19.223881 H          1 MOL1         0.0794
      83    O20     21.566011   26.107951   20.601327 O.3        1 MOL1        -0.5486
      84    H40     21.612690   26.851227   19.961016 H          1 MOL1         0.3769
      85    C25     25.105679   17.616894   21.044415 C.3        1 MOL1         0.2972
      86    H41     25.833290   16.818634   20.852562 H          1 MOL1         0.0751
      87    O21     23.773872   17.098238   21.236525 O.3        1 MOL1        -0.3740
      88    C26     25.513547   18.413243   22.305536 C.3        1 MOL1         0.1003
      89    H42     26.496726   18.858268   22.103807 H          1 MOL1         0.0783
      90    O22     25.619733   17.557251   23.453579 O.3        1 MOL1        -0.5519
      91    H43     24.912481   16.867439   23.379745 H          1 MOL1         0.3769
      92    C27     24.521859   19.568355   22.576708 C.3        1 MOL1         0.1053
      93    H44     23.554051   19.128022   22.850834 H          1 MOL1         0.0783
      94    O23     25.035071   20.340225   23.668074 O.3        1 MOL1        -0.5519
      95    H45     25.397997   19.672413   24.294670 H          1 MOL1         0.3769
      96    C28     24.317441   20.454218   21.312285 C.3        1 MOL1         0.1018
      97    H46     25.204188   21.085573   21.166897 H          1 MOL1         0.0783
      98    C29     24.104055   19.608912   20.020274 C.3        1 MOL1         0.1043
      99    H47     23.095921   19.180597   20.035738 H          1 MOL1         0.0783
     100    O24     25.083079   18.544769   19.942250 O.3        1 MOL1        -0.3740
     101    C30     24.255545   20.444093   18.729257 C.3        1 MOL1         0.0138
     102    H48     24.211100   19.771184   17.862733 H          1 MOL1         0.0794
     103    H49     25.243406   20.923740   18.725298 H          1 MOL1         0.0794
     104    O25     23.225624   21.428681   18.629742 O.3        1 MOL1        -0.5486
     105    H50     23.177030   21.864226   19.511042 H          1 MOL1         0.3769
     106    C31     21.421906   13.709136   21.000512 C.3        1 MOL1         0.2972
     107    H51     20.978560   12.715679   20.854217 H          1 MOL1         0.0751
     108    O26     20.410399   14.718285   21.214486 O.3        1 MOL1        -0.3740
     109    C32     22.413486   13.716553   22.192882 C.3        1 MOL1         0.1003
     110    H52     23.244143   13.049826   21.926722 H          1 MOL1         0.0783
     111    O27     21.808545   13.236058   23.401697 O.3        1 MOL1        -0.5519
     112    H53     21.057233   13.845200   23.613233 H          1 MOL1         0.3769
     113    C33     22.990482   15.139243   22.390632 C.3        1 MOL1         0.1053
     114    H54     22.169340   15.807436   22.681993 H          1 MOL1         0.0783
     115    O28     23.979463   15.112573   23.423392 O.3        1 MOL1        -0.5519
     116    H55     23.591366   14.556172   24.135517 H          1 MOL1         0.3769
     117    C34     23.614308   15.673222   21.075535 C.3        1 MOL1         0.1018
     118    H56     24.573893   15.162143   20.925687 H          1 MOL1         0.0783
     119    C35     22.706270   15.438292   19.833041 C.3        1 MOL1         0.1043
     120    H57     21.861247   16.131224   19.886578 H          1 MOL1         0.0783
     121    O29     22.185245   14.085705   19.833699 O.3        1 MOL1        -0.3740
     122    C36     23.411825   15.702076   18.480329 C.3        1 MOL1         0.0138
     123    H58     23.562359   16.784279   18.366606 H          1 MOL1         0.0794
     124    H59     22.739539   15.383214   17.672793 H          1 MOL1         0.0794
     125    O30     24.667588   15.021169   18.368286 O.3        1 MOL1        -0.5486
     126    H60     25.354918   15.597586   18.763826 H          1 MOL1         0.3769
     127    C1      20.056526   19.571284   18.575277 C.3        1 MOL1        -0.2398
     128    H1      21.036931   19.204969   18.243496 H          1 MOL1         0.0972
     129    H2      19.857098   20.511784   18.045522 H          1 MOL1         0.0972
     130    H3      19.295915   18.842217   18.271504 H          1 MOL1         0.0972
     131    C2      20.040455   19.796601   20.100554 C.3        1 MOL1        -0.1383
     132    H4      19.072577   20.219434   20.394580 H          1 MOL1         0.0961
     133    H5      20.803803   20.541929   20.353907 H          1 MOL1         0.0961
     134    C3      20.312016   18.490069   20.879868 C.3        1 MOL1        -0.1407
     135    H6      19.532972   17.748850   20.654840 H          1 MOL1         0.0961
     136    H7      21.255698   18.064469   20.527542 H          1 MOL1         0.0961
     137    C4      20.419455   18.687073   22.409654 C.3        1 MOL1        -0.1407
     138    H8      21.216895   19.406207   22.635416 H          1 MOL1         0.0961
     139    H9      20.739374   17.738351   22.857464 H          1 MOL1         0.0961
     140    C5      19.088369   19.153664   23.048714 C.3        1 MOL1        -0.1472
     141    H10     18.816949   20.137033   22.649512 H          1 MOL1         0.0961
     142    H11     18.284007   18.469378   22.760329 H          1 MOL1         0.0961
     143    C6      19.154075   19.244491   24.585251 C.3        1 MOL1         0.1190
     144    H12     20.037280   19.829193   24.862110 H          1 MOL1         0.0923
     145    C7      17.902568   19.950542   25.131249 C.3        1 MOL1        -0.2463
     146    H13     16.991804   19.388929   24.888632 H          1 MOL1         0.0972
     147    H14     17.802833   20.957805   24.709416 H          1 MOL1         0.0972
     148    H15     17.959651   20.052407   26.221642 H          1 MOL1         0.0972
     149    N1      19.296750   17.889687   25.218992 N.4        1 MOL1        -0.5974
     150    H16     20.124817   17.394423   24.874761 H          1 MOL1         0.3625
     151    H17     19.365339   17.955632   26.237800 H          1 MOL1         0.3625
     152    H18     18.474773   17.305844   24.997017 H          1 MOL1         0.3625
@<TRIPOS>BOND
    1     1     2    1
    2     1     3    1
    3     1     4    1
    4     4     5    1
    5     4     6    1
    6     6     7    1
    7     4     8    1
    8     8     9    1
    9     8    10    1
   10    10    11    1
   11     8    12    1
   12    12    13    1
   13    12    14    1
   14    14    15    1
   15     1    16    1
   16    14    16    1
   17    14    17    1
   18    17    18    1
   19    17    19    1
   20    17    20    1
   21    20    21    1
   22    22    23    1
   23    22    24    1
   24    22    25    1
   25    25    26    1
   26    25    27    1
   27    27    28    1
   28    25    29    1
   29    29    30    1
   30    29    31    1
   31    31    32    1
   32     3    33    1
   33    29    33    1
   34    33    34    1
   35    33    35    1
   36    35    36    1
   37    22    37    1
   38    35    37    1
   39    35    38    1
   40    38    39    1
   41    38    40    1
   42    38    41    1
   43    41    42    1
   44    43    44    1
   45    43    45    1
   46    43    46    1
   47    46    47    1
   48    46    48    1
   49    48    49    1
   50    46    50    1
   51    50    51    1
   52    50    52    1
   53    52    53    1
   54    24    54    1
   55    50    54    1
   56    54    55    1
   57    54    56    1
   58    56    57    1
   59    43    58    1
   60    56    58    1
   61    56    59    1
   62    59    60    1
   63    59    61    1
   64    59    62    1
   65    62    63    1
   66    64    65    1
   67    64    66    1
   68    64    67    1
   69    67    68    1
   70    67    69    1
   71    69    70    1
   72    67    71    1
   73    71    72    1
   74    71    73    1
   75    73    74    1
   76    45    75    1
   77    71    75    1
   78    75    76    1
   79    75    77    1
   80    77    78    1
   81    64    79    1
   82    77    79    1
   83    77    80    1
   84    80    81    1
   85    80    82    1
   86    80    83    1
   87    83    84    1
   88    85    86    1
   89    85    87    1
   90    85    88    1
   91    88    89    1
   92    88    90    1
   93    90    91    1
   94    88    92    1
   95    92    93    1
   96    92    94    1
   97    94    95    1
   98    66    96    1
   99    92    96    1
  100    96    97    1
  101    96    98    1
  102    98    99    1
  103    85   100    1
  104    98   100    1
  105    98   101    1
  106   101   102    1
  107   101   103    1
  108   101   104    1
  109   104   105    1
  110   106   107    1
  111    12   108    1
  112   106   108    1
  113   106   109    1
  114   109   110    1
  115   109   111    1
  116   111   112    1
  117   109   113    1
  118   113   114    1
  119   113   115    1
  120   115   116    1
  121    87   117    1
  122   113   117    1
  123   117   118    1
  124   117   119    1
  125   119   120    1
  126   106   121    1
  127   119   121    1
  128   119   122    1
  129   122   123    1
  130   122   124    1
  131   122   125    1
  132   125   126    1
  133   127   128    1
  134   127   129    1
  135   127   130    1
  136   127   131    1
  137   131   132    1
  138   131   133    1
  139   131   134    1
  140   134   135    1
  141   134   136    1
  142   134   137    1
  143   137   138    1
  144   137   139    1
  145   137   140    1
  146   140   141    1
  147   140   142    1
  148   140   143    1
  149   143   144    1
  150   143   145    1
  151   145   146    1
  152   145   147    1
  153   145   148    1
  154   143   149    1
  155   149   150    1
  156   149   151    1
  157   149   152    1
@<TRIPOS>SUBSTRUCTURE
       1 MOL1            1 RESIDUE      1      MOL     
       2 MOL1          152 RESIDUE      1      MOL     
@<SCITEGIC>MOL_PROPERTY
feprocess Rank
SciTegic.value.IntegerValue
4

@<SCITEGIC>MOL_PROPERTY
Conf_Id
SciTegic.value.IntegerValue
109

@<SCITEGIC>MOL_PROPERTY
Probability
SciTegic.value.DoubleValue
2.97

@<SCITEGIC>MOL_PROPERTY
G
SciTegic.value.DoubleValue
555.239

@<SCITEGIC>MOL_PROPERTY
E
SciTegic.value.DoubleValue
350.102

@<SCITEGIC>MOL_PROPERTY
-TS
SciTegic.value.DoubleValue
205.137

@<SCITEGIC>MOL_PROPERTY
U+W
SciTegic.value.DoubleValue
215.966

@<SCITEGIC>MOL_PROPERTY
U
SciTegic.value.DoubleValue
297.747

@<SCITEGIC>MOL_PROPERTY
W
SciTegic.value.DoubleValue
-81.782

@<SCITEGIC>MOL_PROPERTY
W(PB)
SciTegic.value.DoubleValue
-87.805

@<SCITEGIC>MOL_PROPERTY
W(SA)
SciTegic.value.DoubleValue
6.024

@<SCITEGIC>MOL_PROPERTY
Valence
SciTegic.value.DoubleValue
151.805

@<SCITEGIC>MOL_PROPERTY
Coulomb
SciTegic.value.DoubleValue
174.016

@<SCITEGIC>MOL_PROPERTY
VdW
SciTegic.value.DoubleValue
-28.073

@<SCITEGIC>MOL_PROPERTY
VdW6
SciTegic.value.DoubleValue
-190.021

@<SCITEGIC>MOL_PROPERTY
VdW12
SciTegic.value.DoubleValue
161.948

@<SCITEGIC>MOL_PROPERTY
Bond
SciTegic.value.DoubleValue
4.789

@<SCITEGIC>MOL_PROPERTY
Angle
SciTegic.value.DoubleValue
12.629

@<SCITEGIC>MOL_PROPERTY
Pdih
SciTegic.value.DoubleValue
134.386

@<SCITEGIC>MOL_PROPERTY
Idih
SciTegic.value.DoubleValue
0.000

@<SCITEGIC>MOL_PROPERTY
Tether
SciTegic.value.DoubleValue
0.000

@<TRIPOS>MOLECULE
CD_guest-s13_fast_vm2_rndm.mol2 : feprocess host+ligand conformer 5
         152         157           2
SMALL
USER_CHARGES
 
@<TRIPOS>ATOM
       1    C1      16.048123   15.050708   20.697764 C.3        1 MOL1         0.2972
       2    H1      14.971060   14.953473   20.509739 H          1 MOL1         0.0751
       3    O1      16.419847   16.421313   20.969098 O.3        1 MOL1        -0.3740
       4    C2      16.503847   14.140223   21.867908 C.3        1 MOL1         0.1003
       5    H2      16.372287   13.100972   21.539036 H          1 MOL1         0.0783
       6    O2      15.723831   14.345075   23.053601 O.3        1 MOL1        -0.5519
       7    H3      15.865642   15.282788   23.334377 H          1 MOL1         0.3769
       8    C3      18.009860   14.363419   22.142396 C.3        1 MOL1         0.1053
       9    H4      18.151442   15.401215   22.472826 H          1 MOL1         0.0783
      10    O3      18.454730   13.469418   23.167303 O.3        1 MOL1        -0.5519
      11    H5      17.749441   13.491888   23.852014 H          1 MOL1         0.3769
      12    C4      18.842332   14.140139   20.854611 C.3        1 MOL1         0.1018
      13    H6      18.929093   13.057604   20.693408 H          1 MOL1         0.0783
      14    C5      18.226667   14.813703   19.591756 C.3        1 MOL1         0.1043
      15    H7      18.424757   15.889485   19.647195 H          1 MOL1         0.0783
      16    O4      16.790941   14.612172   19.540698 O.3        1 MOL1        -0.3740
      17    C6      18.840733   14.307895   18.264629 C.3        1 MOL1         0.0138
      18    H8      19.870637   14.681909   18.191639 H          1 MOL1         0.0794
      19    H9      18.276266   14.743152   17.429181 H          1 MOL1         0.0794
      20    O5      18.835949   12.877338   18.177342 O.3        1 MOL1        -0.5486
      21    H10     19.191046   12.631688   17.295275 H          1 MOL1         0.3769
      22    C7      15.095023   20.165583   22.067658 C.3        1 MOL1         0.2972
      23    H11     14.532704   21.046546   22.402898 H          1 MOL1         0.0751
      24    O6      16.363252   20.533439   21.495406 O.3        1 MOL1        -0.3740
      25    C8      15.352157   19.218789   23.262760 C.3        1 MOL1         0.1003
      26    H12     14.369185   18.935775   23.661630 H          1 MOL1         0.0783
      27    O7      16.115139   19.874197   24.292240 O.3        1 MOL1        -0.5519
      28    H13     16.034311   20.846895   24.131467 H          1 MOL1         0.3769
      29    C9      16.084210   17.933895   22.812225 C.3        1 MOL1         0.1053
      30    H14     17.108191   18.211848   22.536932 H          1 MOL1         0.0783
      31    O8      16.112066   17.026480   23.919000 O.3        1 MOL1        -0.5519
      32    H15     15.830431   17.566065   24.691999 H          1 MOL1         0.3769
      33    C10     15.421852   17.269762   21.575265 C.3        1 MOL1         0.1018
      34    H16     14.542541   16.701888   21.907197 H          1 MOL1         0.0783
      35    C11     15.009425   18.298089   20.483106 C.3        1 MOL1         0.1043
      36    H17     15.922129   18.640673   19.979969 H          1 MOL1         0.0783
      37    O9      14.342533   19.441565   21.073001 O.3        1 MOL1        -0.3740
      38    C12     14.089127   17.698912   19.392951 C.3        1 MOL1         0.0138
      39    H18     14.680247   17.001538   18.783889 H          1 MOL1         0.0794
      40    H19     13.756128   18.509279   18.730659 H          1 MOL1         0.0794
      41    O10     12.960175   17.016544   19.952989 O.3        1 MOL1        -0.5486
      42    H20     12.386173   16.729837   19.209364 H          1 MOL1         0.3769
      43    C13     18.541726   24.025721   20.814435 C.3        1 MOL1         0.2972
      44    H21     18.852473   25.037566   20.524638 H          1 MOL1         0.0751
      45    O11     19.665899   23.199353   21.180279 O.3        1 MOL1        -0.3740
      46    C14     17.590350   24.077833   22.037675 C.3        1 MOL1         0.1003
      47    H22     16.706814   24.658591   21.742274 H          1 MOL1         0.0783
      48    O12     18.219967   24.720116   23.157853 O.3        1 MOL1        -0.5519
      49    H23     19.170750   24.441887   23.166004 H          1 MOL1         0.3769
      50    C15     17.117063   22.654312   22.423502 C.3        1 MOL1         0.1053
      51    H24     17.989046   22.083331   22.769176 H          1 MOL1         0.0783
      52    O13     16.153164   22.749508   23.478360 O.3        1 MOL1        -0.5519
      53    H25     16.514280   23.434716   24.085684 H          1 MOL1         0.3769
      54    C16     16.516869   21.930300   21.188990 C.3        1 MOL1         0.1018
      55    H26     15.554959   22.395309   20.936534 H          1 MOL1         0.0783
      56    C17     17.453026   22.010534   19.955127 C.3        1 MOL1         0.1043
      57    H27     18.351518   21.422533   20.167580 H          1 MOL1         0.0783
      58    O14     17.834624   23.387540   19.726951 O.3        1 MOL1        -0.3740
      59    C18     16.833423   21.429984   18.658377 C.3        1 MOL1         0.0138
      60    H28     16.939230   20.337675   18.683285 H          1 MOL1         0.0794
      61    H29     17.415367   21.790047   17.799637 H          1 MOL1         0.0794
      62    O15     15.451096   21.769874   18.496621 O.3        1 MOL1        -0.5486
      63    H30     14.945787   21.268837   19.174084 H          1 MOL1         0.3769
      64    C19     23.764008   22.864692   21.121689 C.3        1 MOL1         0.2972
      65    H31     24.852288   22.962586   21.016759 H          1 MOL1         0.0751
      66    O16     23.372322   21.500385   21.388520 O.3        1 MOL1        -0.3740
      67    C20     23.220259   23.779379   22.248978 C.3        1 MOL1         0.1003
      68    H32     23.392056   24.817669   21.936143 H          1 MOL1         0.0783
      69    O17     23.894279   23.557539   23.495914 O.3        1 MOL1        -0.5519
      70    H33     23.779252   22.601541   23.727374 H          1 MOL1         0.3769
      71    C21     21.693849   23.574519   22.397856 C.3        1 MOL1         0.1053
      72    H34     21.514069   22.541886   22.726274 H          1 MOL1         0.0783
      73    O18     21.179279   24.484754   23.374344 O.3        1 MOL1        -0.5519
      74    H35     21.827912   24.460912   24.113142 H          1 MOL1         0.3769
      75    C22     20.971895   23.791638   21.043471 C.3        1 MOL1         0.1018
      76    H36     20.918863   24.872099   20.856280 H          1 MOL1         0.0783
      77    C23     21.677960   23.086807   19.847888 C.3        1 MOL1         0.1043
      78    H37     21.472168   22.011997   19.910409 H          1 MOL1         0.0783
      79    O19     23.113122   23.286139   19.904678 O.3        1 MOL1        -0.3740
      80    C24     21.169722   23.569011   18.468199 C.3        1 MOL1         0.0138
      81    H38     20.141123   23.209862   18.330492 H          1 MOL1         0.0794
      82    H39     21.785020   23.104676   17.686012 H          1 MOL1         0.0794
      83    O20     21.205347   24.996828   18.347986 O.3        1 MOL1        -0.5486
      84    H40     20.908788   25.226641   17.440463 H          1 MOL1         0.3769
      85    C25     24.707117   17.730925   22.365044 C.3        1 MOL1         0.2972
      86    H41     25.264775   16.834046   22.664891 H          1 MOL1         0.0751
      87    O21     23.408567   17.397681   21.839504 O.3        1 MOL1        -0.3740
      88    C26     24.511131   18.659054   23.584591 C.3        1 MOL1         0.1003
      89    H42     25.507980   18.957081   23.934915 H          1 MOL1         0.0783
      90    O22     23.819107   17.973219   24.641760 O.3        1 MOL1        -0.5519
      91    H43     23.686350   17.040160   24.344066 H          1 MOL1         0.3769
      92    C27     23.738082   19.932897   23.176510 C.3        1 MOL1         0.1053
      93    H44     22.721254   19.634882   22.902239 H          1 MOL1         0.0783
      94    O23     23.687806   20.817867   24.297164 O.3        1 MOL1        -0.5519
      95    H45     23.515401   20.230134   25.066252 H          1 MOL1         0.3769
      96    C28     24.377753   20.630685   21.947943 C.3        1 MOL1         0.1018
      97    H46     25.267218   21.182787   22.279595 H          1 MOL1         0.0783
      98    C29     24.756242   19.631232   20.816953 C.3        1 MOL1         0.1043
      99    H47     23.825094   19.314252   20.331889 H          1 MOL1         0.0783
     100    O24     25.427334   18.461223   21.350858 O.3        1 MOL1        -0.3740
     101    C30     25.651536   20.254899   19.719921 C.3        1 MOL1         0.0138
     102    H48     25.051084   20.976008   19.148731 H          1 MOL1         0.0794
     103    H49     25.958789   19.462447   19.024241 H          1 MOL1         0.0794
     104    O25     26.801305   20.909412   20.270448 O.3        1 MOL1        -0.5486
     105    H50     27.357301   21.215633   19.520978 H          1 MOL1         0.3769
     106    C31     21.283432   13.971204   20.753448 C.3        1 MOL1         0.2972
     107    H51     21.009982   12.980807   20.367491 H          1 MOL1         0.0751
     108    O26     20.122312   14.756497   21.092414 O.3        1 MOL1        -0.3740
     109    C32     22.141657   13.838489   22.039653 C.3        1 MOL1         0.1003
     110    H52     23.046984   13.276375   21.775995 H          1 MOL1         0.0783
     111    O27     21.429018   13.128769   23.065652 O.3        1 MOL1        -0.5519
     112    H53     20.487387   13.435883   23.043116 H          1 MOL1         0.3769
     113    C33     22.577296   15.234493   22.549866 C.3        1 MOL1         0.1053
     114    H54     21.677182   15.777034   22.864625 H          1 MOL1         0.0783
     115    O28     23.466581   15.089235   23.662433 O.3        1 MOL1        -0.5519
     116    H55     23.067806   14.378654   24.213792 H          1 MOL1         0.3769
     117    C34     23.258703   16.034445   21.411761 C.3        1 MOL1         0.1018
     118    H56     24.227617   15.570249   21.184596 H          1 MOL1         0.0783
     119    C35     22.399178   16.055676   20.122741 C.3        1 MOL1         0.1043
     120    H57     21.481643   16.619725   20.328618 H          1 MOL1         0.0783
     121    O29     22.053527   14.696358   19.767525 O.3        1 MOL1        -0.3740
     122    C36     23.094380   16.735399   18.913780 C.3        1 MOL1         0.0138
     123    H58     22.894868   17.813012   18.961304 H          1 MOL1         0.0794
     124    H59     22.632135   16.365627   17.988843 H          1 MOL1         0.0794
     125    O30     24.510871   16.518919   18.879632 O.3        1 MOL1        -0.5486
     126    H60     24.901939   17.014750   19.634717 H          1 MOL1         0.3769
     127    C1      19.565261   18.659759   18.987960 C.3        1 MOL1        -0.2398
     128    H1      18.855038   18.044301   18.420917 H          1 MOL1         0.0972
     129    H2      19.487079   19.690259   18.619081 H          1 MOL1         0.0972
     130    H3      20.575597   18.298428   18.766853 H          1 MOL1         0.0972
     131    C2      19.263294   18.585960   20.499233 C.3        1 MOL1        -0.1383
     132    H4      18.229195   18.906513   20.669164 H          1 MOL1         0.0961
     133    H5      19.328110   17.544952   20.838232 H          1 MOL1         0.0961
     134    C3      20.224369   19.469300   21.325515 C.3        1 MOL1        -0.1407
     135    H6      21.256409   19.116367   21.199979 H          1 MOL1         0.0961
     136    H7      20.203048   20.490533   20.930689 H          1 MOL1         0.0961
     137    C4      19.862087   19.527551   22.828338 C.3        1 MOL1        -0.1407
     138    H8      18.803646   19.794732   22.942696 H          1 MOL1         0.0961
     139    H9      20.436230   20.346632   23.280246 H          1 MOL1         0.0961
     140    C5      20.173388   18.203877   23.576251 C.3        1 MOL1        -0.1472
     141    H10     19.639746   17.370765   23.102909 H          1 MOL1         0.0961
     142    H11     21.240512   17.977370   23.469265 H          1 MOL1         0.0961
     143    C6      19.830446   18.206053   25.083530 C.3        1 MOL1         0.1190
     144    H12     20.173300   17.250227   25.491615 H          1 MOL1         0.0923
     145    C7      20.553397   19.322830   25.855052 C.3        1 MOL1        -0.2463
     146    H13     21.632681   19.284372   25.670138 H          1 MOL1         0.0972
     147    H14     20.398091   19.204594   26.934135 H          1 MOL1         0.0972
     148    H15     20.187836   20.317063   25.571850 H          1 MOL1         0.0972
     149    N1      18.350766   18.250529   25.334000 N.4        1 MOL1        -0.5974
     150    H16     17.869535   17.472574   24.863562 H          1 MOL1         0.3625
     151    H17     18.134800   18.192508   26.332327 H          1 MOL1         0.3625
     152    H18     17.914728   19.112256   24.974199 H          1 MOL1         0.3625
@<TRIPOS>BOND
    1     1     2    1
    2     1     3    1
    3     1     4    1
    4     4     5    1
    5     4     6    1
    6     6     7    1
    7     4     8    1
    8     8     9    1
    9     8    10    1
   10    10    11    1
   11     8    12    1
   12    12    13    1
   13    12    14    1
   14    14    15    1
   15     1    16    1
   16    14    16    1
   17    14    17    1
   18    17    18    1
   19    17    19    1
   20    17    20    1
   21    20    21    1
   22    22    23    1
   23    22    24    1
   24    22    25    1
   25    25    26    1
   26    25    27    1
   27    27    28    1
   28    25    29    1
   29    29    30    1
   30    29    31    1
   31    31    32    1
   32     3    33    1
   33    29    33    1
   34    33    34    1
   35    33    35    1
   36    35    36    1
   37    22    37    1
   38    35    37    1
   39    35    38    1
   40    38    39    1
   41    38    40    1
   42    38    41    1
   43    41    42    1
   44    43    44    1
   45    43    45    1
   46    43    46    1
   47    46    47    1
   48    46    48    1
   49    48    49    1
   50    46    50    1
   51    50    51    1
   52    50    52    1
   53    52    53    1
   54    24    54    1
   55    50    54    1
   56    54    55    1
   57    54    56    1
   58    56    57    1
   59    43    58    1
   60    56    58    1
   61    56    59    1
   62    59    60    1
   63    59    61    1
   64    59    62    1
   65    62    63    1
   66    64    65    1
   67    64    66    1
   68    64    67    1
   69    67    68    1
   70    67    69    1
   71    69    70    1
   72    67    71    1
   73    71    72    1
   74    71    73    1
   75    73    74    1
   76    45    75    1
   77    71    75    1
   78    75    76    1
   79    75    77    1
   80    77    78    1
   81    64    79    1
   82    77    79    1
   83    77    80    1
   84    80    81    1
   85    80    82    1
   86    80    83    1
   87    83    84    1
   88    85    86    1
   89    85    87    1
   90    85    88    1
   91    88    89    1
   92    88    90    1
   93    90    91    1
   94    88    92    1
   95    92    93    1
   96    92    94    1
   97    94    95    1
   98    66    96    1
   99    92    96    1
  100    96    97    1
  101    96    98    1
  102    98    99    1
  103    85   100    1
  104    98   100    1
  105    98   101    1
  106   101   102    1
  107   101   103    1
  108   101   104    1
  109   104   105    1
  110   106   107    1
  111    12   108    1
  112   106   108    1
  113   106   109    1
  114   109   110    1
  115   109   111    1
  116   111   112    1
  117   109   113    1
  118   113   114    1
  119   113   115    1
  120   115   116    1
  121    87   117    1
  122   113   117    1
  123   117   118    1
  124   117   119    1
  125   119   120    1
  126   106   121    1
  127   119   121    1
  128   119   122    1
  129   122   123    1
  130   122   124    1
  131   122   125    1
  132   125   126    1
  133   127   128    1
  134   127   129    1
  135   127   130    1
  136   127   131    1
  137   131   132    1
  138   131   133    1
  139   131   134    1
  140   134   135    1
  141   134   136    1
  142   134   137    1
  143   137   138    1
  144   137   139    1
  145   137   140    1
  146   140   141    1
  147   140   142    1
  148   140   143    1
  149   143   144    1
  150   143   145    1
  151   145   146    1
  152   145   147    1
  153   145   148    1
  154   143   149    1
  155   149   150    1
  156   149   151    1
  157   149   152    1
@<TRIPOS>SUBSTRUCTURE
       1 MOL1            1 RESIDUE      1      MOL     
       2 MOL1          152 RESIDUE      1      MOL     
@<SCITEGIC>MOL_PROPERTY
feprocess Rank
SciTegic.value.IntegerValue
5

@<SCITEGIC>MOL_PROPERTY
Conf_Id
SciTegic.value.IntegerValue
675

@<SCITEGIC>MOL_PROPERTY
Probability
SciTegic.value.DoubleValue
2.80

@<SCITEGIC>MOL_PROPERTY
G
SciTegic.value.DoubleValue
555.274

@<SCITEGIC>MOL_PROPERTY
E
SciTegic.value.DoubleValue
350.269

@<SCITEGIC>MOL_PROPERTY
-TS
SciTegic.value.DoubleValue
205.005

@<SCITEGIC>MOL_PROPERTY
U+W
SciTegic.value.DoubleValue
216.133

@<SCITEGIC>MOL_PROPERTY
U
SciTegic.value.DoubleValue
298.818

@<SCITEGIC>MOL_PROPERTY
W
SciTegic.value.DoubleValue
-82.686

@<SCITEGIC>MOL_PROPERTY
W(PB)
SciTegic.value.DoubleValue
-88.729

@<SCITEGIC>MOL_PROPERTY
W(SA)
SciTegic.value.DoubleValue
6.043

@<SCITEGIC>MOL_PROPERTY
Valence
SciTegic.value.DoubleValue
150.126

@<SCITEGIC>MOL_PROPERTY
Coulomb
SciTegic.value.DoubleValue
175.238

@<SCITEGIC>MOL_PROPERTY
VdW
SciTegic.value.DoubleValue
-26.546

@<SCITEGIC>MOL_PROPERTY
VdW6
SciTegic.value.DoubleValue
-186.727

@<SCITEGIC>MOL_PROPERTY
VdW12
SciTegic.value.DoubleValue
160.182

@<SCITEGIC>MOL_PROPERTY
Bond
SciTegic.value.DoubleValue
4.656

@<SCITEGIC>MOL_PROPERTY
Angle
SciTegic.value.DoubleValue
12.425

@<SCITEGIC>MOL_PROPERTY
Pdih
SciTegic.value.DoubleValue
133.045

@<SCITEGIC>MOL_PROPERTY
Idih
SciTegic.value.DoubleValue
0.000

@<SCITEGIC>MOL_PROPERTY
Tether
SciTegic.value.DoubleValue
0.000

@<TRIPOS>MOLECULE
CD_guest-s13_fast_vm2_rndm.mol2 : feprocess host+ligand conformer 6
         152         157           2
SMALL
USER_CHARGES
 
@<TRIPOS>ATOM
       1    C1      16.083902   15.101169   20.804171 C.3        1 MOL1         0.2972
       2    H1      14.999061   15.000573   20.670369 H          1 MOL1         0.0751
       3    O1      16.465795   16.475122   21.042716 O.3        1 MOL1        -0.3740
       4    C2      16.594550   14.210936   21.966112 C.3        1 MOL1         0.1003
       5    H2      16.436685   13.166482   21.666644 H          1 MOL1         0.0783
       6    O2      15.880037   14.449303   23.186734 O.3        1 MOL1        -0.5519
       7    H3      16.033258   15.395773   23.432625 H          1 MOL1         0.3769
       8    C3      18.114888   14.424414   22.158481 C.3        1 MOL1         0.1053
       9    H4      18.281575   15.465053   22.465793 H          1 MOL1         0.0783
      10    O3      18.595446   13.540646   23.175153 O.3        1 MOL1        -0.5519
      11    H5      17.920972   13.581774   23.889766 H          1 MOL1         0.3769
      12    C4      18.880784   14.174846   20.833469 C.3        1 MOL1         0.1018
      13    H6      18.944061   13.089743   20.679102 H          1 MOL1         0.0783
      14    C5      18.205383   14.839802   19.597186 C.3        1 MOL1         0.1043
      15    H7      18.406670   15.915921   19.630819 H          1 MOL1         0.0783
      16    O4      16.768612   14.643725   19.618683 O.3        1 MOL1        -0.3740
      17    C6      18.755180   14.316551   18.248813 C.3        1 MOL1         0.0138
      18    H8      19.788301   14.671236   18.133071 H          1 MOL1         0.0794
      19    H9      18.164960   14.757532   17.434434 H          1 MOL1         0.0794
      20    O5      18.721879   12.885758   18.170445 O.3        1 MOL1        -0.5486
      21    H10     19.040218   12.629111   17.277542 H          1 MOL1         0.3769
      22    C7      15.115455   20.233441   22.083236 C.3        1 MOL1         0.2972
      23    H11     14.550920   21.119352   22.401178 H          1 MOL1         0.0751
      24    O6      16.387370   20.590475   21.507712 O.3        1 MOL1        -0.3740
      25    C8      15.371074   19.303137   23.292489 C.3        1 MOL1         0.1003
      26    H12     14.391045   18.989881   23.675689 H          1 MOL1         0.0783
      27    O7      16.096276   19.984651   24.332411 O.3        1 MOL1        -0.5519
      28    H13     16.012540   20.953241   24.149132 H          1 MOL1         0.3769
      29    C9      16.147989   18.044764   22.846104 C.3        1 MOL1         0.1053
      30    H14     17.138917   18.371744   22.520302 H          1 MOL1         0.0783
      31    O8      16.274338   17.161926   23.964680 O.3        1 MOL1        -0.5519
      32    H15     16.174554   17.738220   24.753891 H          1 MOL1         0.3769
      33    C10     15.473138   17.335193   21.642933 C.3        1 MOL1         0.1018
      34    H16     14.603032   16.772861   22.007037 H          1 MOL1         0.0783
      35    C11     15.038751   18.334373   20.531667 C.3        1 MOL1         0.1043
      36    H17     15.944602   18.672740   20.012947 H          1 MOL1         0.0783
      37    O9      14.367674   19.487720   21.100152 O.3        1 MOL1        -0.3740
      38    C12     14.112718   17.701501   19.465731 C.3        1 MOL1         0.0138
      39    H18     14.703946   16.996213   18.865929 H          1 MOL1         0.0794
      40    H19     13.764013   18.493180   18.789084 H          1 MOL1         0.0794
      41    O10     12.997299   17.021042   20.054556 O.3        1 MOL1        -0.5486
      42    H20     12.417886   16.711456   19.324412 H          1 MOL1         0.3769
      43    C13     18.573216   24.068088   20.753344 C.3        1 MOL1         0.2972
      44    H21     18.881359   25.072088   20.435332 H          1 MOL1         0.0751
      45    O11     19.700923   23.251620   21.128749 O.3        1 MOL1        -0.3740
      46    C14     17.609315   24.152101   21.966154 C.3        1 MOL1         0.1003
      47    H22     16.728673   24.724078   21.645957 H          1 MOL1         0.0783
      48    O12     18.225724   24.824701   23.075293 O.3        1 MOL1        -0.5519
      49    H23     19.161297   24.505069   23.140009 H          1 MOL1         0.3769
      50    C15     17.131812   22.740888   22.385708 C.3        1 MOL1         0.1053
      51    H24     18.005066   22.192162   22.755737 H          1 MOL1         0.0783
      52    O13     16.159656   22.858086   23.430518 O.3        1 MOL1        -0.5519
      53    H25     16.503616   23.571620   24.014490 H          1 MOL1         0.3769
      54    C16     16.547960   21.978252   21.165603 C.3        1 MOL1         0.1018
      55    H26     15.590655   22.435672   20.883555 H          1 MOL1         0.0783
      56    C17     17.505940   22.019523   19.946593 C.3        1 MOL1         0.1043
      57    H27     18.402485   21.438088   20.195345 H          1 MOL1         0.0783
      58    O14     17.883490   23.392605   19.678535 O.3        1 MOL1        -0.3740
      59    C18     16.909030   21.396842   18.658818 C.3        1 MOL1         0.0138
      60    H28     17.006165   20.305545   18.725126 H          1 MOL1         0.0794
      61    H29     17.510673   21.721208   17.799124 H          1 MOL1         0.0794
      62    O15     15.532900   21.740449   18.457582 O.3        1 MOL1        -0.5486
      63    H30     15.010308   21.267701   19.142033 H          1 MOL1         0.3769
      64    C19     23.800820   22.949035   21.195117 C.3        1 MOL1         0.2972
      65    H31     24.892071   23.055245   21.142571 H          1 MOL1         0.0751
      66    O16     23.407569   21.562847   21.308901 O.3        1 MOL1        -0.3740
      67    C20     23.207630   23.769318   22.371145 C.3        1 MOL1         0.1003
      68    H32     23.393392   24.828706   22.151013 H          1 MOL1         0.0783
      69    O17     23.823999   23.449341   23.626226 O.3        1 MOL1        -0.5519
      70    H33     23.602067   22.504994   23.823568 H          1 MOL1         0.3769
      71    C21     21.676368   23.559837   22.438163 C.3        1 MOL1         0.1053
      72    H34     21.488084   22.507444   22.685530 H          1 MOL1         0.0783
      73    O18     21.120884   24.398822   23.454716 O.3        1 MOL1        -0.5519
      74    H35     21.743150   24.330766   24.212868 H          1 MOL1         0.3769
      75    C22     21.002936   23.866657   21.075193 C.3        1 MOL1         0.1018
      76    H36     20.940660   24.956646   20.957891 H          1 MOL1         0.0783
      77    C23     21.767581   23.255123   19.863407 C.3        1 MOL1         0.1043
      78    H37     21.586513   22.175271   19.838551 H          1 MOL1         0.0783
      79    O19     23.193314   23.479196   19.996865 O.3        1 MOL1        -0.3740
      80    C24     21.315686   23.828127   18.501360 C.3        1 MOL1         0.0138
      81    H38     22.161789   23.778249   17.802974 H          1 MOL1         0.0794
      82    H39     21.042867   24.886060   18.610339 H          1 MOL1         0.0794
      83    O20     20.225401   23.070337   17.966909 O.3        1 MOL1        -0.5486
      84    H40     19.455496   23.181353   18.572474 H          1 MOL1         0.3769
      85    C25     24.600218   17.762459   22.405956 C.3        1 MOL1         0.2972
      86    H41     25.123542   16.876712   22.787198 H          1 MOL1         0.0751
      87    O21     23.470248   17.401399   21.585935 O.3        1 MOL1        -0.3740
      88    C26     24.099023   18.636834   23.582027 C.3        1 MOL1         0.1003
      89    H42     24.980550   18.931129   24.166466 H          1 MOL1         0.0783
      90    O22     23.185541   17.916235   24.427330 O.3        1 MOL1        -0.5519
      91    H43     23.354588   16.954446   24.280822 H          1 MOL1         0.3769
      92    C27     23.413433   19.916772   23.057752 C.3        1 MOL1         0.1053
      93    H44     22.494952   19.614437   22.545359 H          1 MOL1         0.0783
      94    O23     23.090357   20.745757   24.176046 O.3        1 MOL1        -0.5519
      95    H45     22.771315   20.114448   24.859403 H          1 MOL1         0.3769
      96    C28     24.289457   20.678666   22.031351 C.3        1 MOL1         0.1018
      97    H46     25.076699   21.223848   22.568658 H          1 MOL1         0.0783
      98    C29     24.921838   19.729227   20.973999 C.3        1 MOL1         0.1043
      99    H47     24.126281   19.402148   20.292283 H          1 MOL1         0.0783
     100    O24     25.500532   18.563332   21.611842 O.3        1 MOL1        -0.3740
     101    C30     26.010596   20.410119   20.110553 C.3        1 MOL1         0.0138
     102    H48     25.522103   21.128713   19.438521 H          1 MOL1         0.0794
     103    H49     26.487164   19.646627   19.481168 H          1 MOL1         0.0794
     104    O25     26.992638   21.082860   20.908678 O.3        1 MOL1        -0.5486
     105    H50     27.688060   21.421087   20.303135 H          1 MOL1         0.3769
     106    C31     21.318505   13.940658   20.679080 C.3        1 MOL1         0.2972
     107    H51     21.013069   12.942566   20.340019 H          1 MOL1         0.0751
     108    O26     20.182628   14.777602   20.984349 O.3        1 MOL1        -0.3740
     109    C32     22.192110   13.841238   21.955421 C.3        1 MOL1         0.1003
     110    H52     23.089882   13.266877   21.691955 H          1 MOL1         0.0783
     111    O27     21.500228   13.160968   23.014184 O.3        1 MOL1        -0.5519
     112    H53     20.560501   13.475230   23.009711 H          1 MOL1         0.3769
     113    C33     22.648830   15.247437   22.416889 C.3        1 MOL1         0.1053
     114    H54     21.758885   15.816368   22.716939 H          1 MOL1         0.0783
     115    O28     23.527460   15.099098   23.537641 O.3        1 MOL1        -0.5519
     116    H55     23.125326   14.378998   24.075636 H          1 MOL1         0.3769
     117    C34     23.346182   16.004793   21.251461 C.3        1 MOL1         0.1018
     118    H56     24.328637   15.551706   21.066751 H          1 MOL1         0.0783
     119    C35     22.508212   15.951787   19.945283 C.3        1 MOL1         0.1043
     120    H57     21.609410   16.556919   20.095450 H          1 MOL1         0.0783
     121    O29     22.111216   14.589363   19.660486 O.3        1 MOL1        -0.3740
     122    C36     23.238564   16.533615   18.709348 C.3        1 MOL1         0.0138
     123    H58     23.238080   17.628914   18.787853 H          1 MOL1         0.0794
     124    H59     22.664195   16.274214   17.810189 H          1 MOL1         0.0794
     125    O30     24.585493   16.061491   18.586855 O.3        1 MOL1        -0.5486
     126    H60     25.112796   16.490543   19.294837 H          1 MOL1         0.3769
     127    C1      20.413585   19.347878   18.639801 C.3        1 MOL1        -0.2398
     128    H1      21.129513   20.012372   18.137976 H          1 MOL1         0.0972
     129    H2      20.551693   18.335441   18.239604 H          1 MOL1         0.0972
     130    H3      19.404564   19.685327   18.374276 H          1 MOL1         0.0972
     131    C2      20.626037   19.377330   20.166955 C.3        1 MOL1        -0.1383
     132    H4      20.524119   20.408813   20.522385 H          1 MOL1         0.0961
     133    H5      21.652815   19.064802   20.396301 H          1 MOL1         0.0961
     134    C3      19.620344   18.469252   20.909507 C.3        1 MOL1        -0.1407
     135    H6      18.596395   18.821076   20.724502 H          1 MOL1         0.0961
     136    H7      19.672597   17.457842   20.495630 H          1 MOL1         0.0961
     137    C4      19.879956   18.387337   22.431965 C.3        1 MOL1        -0.1407
     138    H8      20.903707   18.038670   22.618284 H          1 MOL1         0.0961
     139    H9      19.222203   17.618464   22.854894 H          1 MOL1         0.0961
     140    C5      19.642250   19.741628   23.144074 C.3        1 MOL1        -0.1472
     141    H10     20.367265   20.478340   22.780399 H          1 MOL1         0.0961
     142    H11     18.651295   20.122403   22.876983 H          1 MOL1         0.0961
     143    C6      19.753106   19.653354   24.677522 C.3        1 MOL1         0.1190
     144    H12     20.695758   19.158346   24.932660 H          1 MOL1         0.0923
     145    C7      19.750283   21.063478   25.290121 C.3        1 MOL1        -0.2463
     146    H13     18.811047   21.587942   25.073605 H          1 MOL1         0.0972
     147    H14     20.574788   21.668250   24.893416 H          1 MOL1         0.0972
     148    H15     19.869475   21.013367   26.379109 H          1 MOL1         0.0972
     149    N1      18.640110   18.834737   25.267747 N.4        1 MOL1        -0.5974
     150    H16     18.620804   17.886361   24.880759 H          1 MOL1         0.3625
     151    H17     18.722369   18.763114   26.285136 H          1 MOL1         0.3625
     152    H18     17.729356   19.271668   25.054887 H          1 MOL1         0.3625
@<TRIPOS>BOND
    1     1     2    1
    2     1     3    1
    3     1     4    1
    4     4     5    1
    5     4     6    1
    6     6     7    1
    7     4     8    1
    8     8     9    1
    9     8    10    1
   10    10    11    1
   11     8    12    1
   12    12    13    1
   13    12    14    1
   14    14    15    1
   15     1    16    1
   16    14    16    1
   17    14    17    1
   18    17    18    1
   19    17    19    1
   20    17    20    1
   21    20    21    1
   22    22    23    1
   23    22    24    1
   24    22    25    1
   25    25    26    1
   26    25    27    1
   27    27    28    1
   28    25    29    1
   29    29    30    1
   30    29    31    1
   31    31    32    1
   32     3    33    1
   33    29    33    1
   34    33    34    1
   35    33    35    1
   36    35    36    1
   37    22    37    1
   38    35    37    1
   39    35    38    1
   40    38    39    1
   41    38    40    1
   42    38    41    1
   43    41    42    1
   44    43    44    1
   45    43    45    1
   46    43    46    1
   47    46    47    1
   48    46    48    1
   49    48    49    1
   50    46    50    1
   51    50    51    1
   52    50    52    1
   53    52    53    1
   54    24    54    1
   55    50    54    1
   56    54    55    1
   57    54    56    1
   58    56    57    1
   59    43    58    1
   60    56    58    1
   61    56    59    1
   62    59    60    1
   63    59    61    1
   64    59    62    1
   65    62    63    1
   66    64    65    1
   67    64    66    1
   68    64    67    1
   69    67    68    1
   70    67    69    1
   71    69    70    1
   72    67    71    1
   73    71    72    1
   74    71    73    1
   75    73    74    1
   76    45    75    1
   77    71    75    1
   78    75    76    1
   79    75    77    1
   80    77    78    1
   81    64    79    1
   82    77    79    1
   83    77    80    1
   84    80    81    1
   85    80    82    1
   86    80    83    1
   87    83    84    1
   88    85    86    1
   89    85    87    1
   90    85    88    1
   91    88    89    1
   92    88    90    1
   93    90    91    1
   94    88    92    1
   95    92    93    1
   96    92    94    1
   97    94    95    1
   98    66    96    1
   99    92    96    1
  100    96    97    1
  101    96    98    1
  102    98    99    1
  103    85   100    1
  104    98   100    1
  105    98   101    1
  106   101   102    1
  107   101   103    1
  108   101   104    1
  109   104   105    1
  110   106   107    1
  111    12   108    1
  112   106   108    1
  113   106   109    1
  114   109   110    1
  115   109   111    1
  116   111   112    1
  117   109   113    1
  118   113   114    1
  119   113   115    1
  120   115   116    1
  121    87   117    1
  122   113   117    1
  123   117   118    1
  124   117   119    1
  125   119   120    1
  126   106   121    1
  127   119   121    1
  128   119   122    1
  129   122   123    1
  130   122   124    1
  131   122   125    1
  132   125   126    1
  133   127   128    1
  134   127   129    1
  135   127   130    1
  136   127   131    1
  137   131   132    1
  138   131   133    1
  139   131   134    1
  140   134   135    1
  141   134   136    1
  142   134   137    1
  143   137   138    1
  144   137   139    1
  145   137   140    1
  146   140   141    1
  147   140   142    1
  148   140   143    1
  149   143   144    1
  150   143   145    1
  151   145   146    1
  152   145   147    1
  153   145   148    1
  154   143   149    1
  155   149   150    1
  156   149   151    1
  157   149   152    1
@<TRIPOS>SUBSTRUCTURE
       1 MOL1            1 RESIDUE      1      MOL     
       2 MOL1          152 RESIDUE      1      MOL     
@<SCITEGIC>MOL_PROPERTY
feprocess Rank
SciTegic.value.IntegerValue
6

@<SCITEGIC>MOL_PROPERTY
Conf_Id
SciTegic.value.IntegerValue
829

@<SCITEGIC>MOL_PROPERTY
Probability
SciTegic.value.DoubleValue
2.23

@<SCITEGIC>MOL_PROPERTY
G
SciTegic.value.DoubleValue
555.409

@<SCITEGIC>MOL_PROPERTY
E
SciTegic.value.DoubleValue
349.204

@<SCITEGIC>MOL_PROPERTY
-TS
SciTegic.value.DoubleValue
206.205

@<SCITEGIC>MOL_PROPERTY
U+W
SciTegic.value.DoubleValue
215.068

@<SCITEGIC>MOL_PROPERTY
U
SciTegic.value.DoubleValue
297.118

@<SCITEGIC>MOL_PROPERTY
W
SciTegic.value.DoubleValue
-82.050

@<SCITEGIC>MOL_PROPERTY
W(PB)
SciTegic.value.DoubleValue
-88.042

@<SCITEGIC>MOL_PROPERTY
W(SA)
SciTegic.value.DoubleValue
5.991

@<SCITEGIC>MOL_PROPERTY
Valence
SciTegic.value.DoubleValue
151.333

@<SCITEGIC>MOL_PROPERTY
Coulomb
SciTegic.value.DoubleValue
173.577

@<SCITEGIC>MOL_PROPERTY
VdW
SciTegic.value.DoubleValue
-27.792

@<SCITEGIC>MOL_PROPERTY
VdW6
SciTegic.value.DoubleValue
-190.398

@<SCITEGIC>MOL_PROPERTY
VdW12
SciTegic.value.DoubleValue
162.606

@<SCITEGIC>MOL_PROPERTY
Bond
SciTegic.value.DoubleValue
4.764

@<SCITEGIC>MOL_PROPERTY
Angle
SciTegic.value.DoubleValue
12.352

@<SCITEGIC>MOL_PROPERTY
Pdih
SciTegic.value.DoubleValue
134.217

@<SCITEGIC>MOL_PROPERTY
Idih
SciTegic.value.DoubleValue
0.000

@<SCITEGIC>MOL_PROPERTY
Tether
SciTegic.value.DoubleValue
0.000

@<TRIPOS>MOLECULE
CD_guest-s13_fast_vm2_rndm.mol2 : feprocess host+ligand conformer 7
         152         157           2
SMALL
USER_CHARGES
 
@<TRIPOS>ATOM
       1    C1      16.287017   15.372434   21.661535 C.3        1 MOL1         0.2972
       2    H1      15.228784   15.224713   21.912522 H          1 MOL1         0.0751
       3    O1      16.513788   16.677630   21.090696 O.3        1 MOL1        -0.3740
       4    C2      17.160824   15.196787   22.930307 C.3        1 MOL1         0.1003
       5    H2      16.961432   14.187883   23.314663 H          1 MOL1         0.0783
       6    O2      16.838040   16.159780   23.947365 O.3        1 MOL1        -0.5519
       7    H3      15.937520   16.510272   23.743298 H          1 MOL1         0.3769
       8    C3      18.665682   15.294288   22.601806 C.3        1 MOL1         0.1053
       9    H4      18.883127   16.338283   22.341713 H          1 MOL1         0.0783
      10    O3      19.396374   14.917624   23.770951 O.3        1 MOL1        -0.5519
      11    H5      18.922914   15.368117   24.506083 H          1 MOL1         0.3769
      12    C4      19.076817   14.402680   21.403661 C.3        1 MOL1         0.1018
      13    H6      19.148342   13.361220   21.744125 H          1 MOL1         0.0783
      14    C5      18.073636   14.505290   20.219585 C.3        1 MOL1         0.1043
      15    H7      18.199172   15.488042   19.748351 H          1 MOL1         0.0783
      16    O4      16.709514   14.384722   20.697229 O.3        1 MOL1        -0.3740
      17    C6      18.307569   13.439926   19.121964 C.3        1 MOL1         0.0138
      18    H8      19.235568   13.687926   18.589147 H          1 MOL1         0.0794
      19    H9      17.487169   13.500650   18.394339 H          1 MOL1         0.0794
      20    O5      18.397996   12.115638   19.662265 O.3        1 MOL1        -0.5486
      21    H10     18.465794   11.489928   18.908258 H          1 MOL1         0.3769
      22    C7      14.630181   20.329012   20.660814 C.3        1 MOL1         0.2972
      23    H11     13.986713   21.189855   20.437594 H          1 MOL1         0.0751
      24    O6      15.971585   20.737335   21.004223 O.3        1 MOL1        -0.3740
      25    C8      14.047045   19.465333   21.808779 C.3        1 MOL1         0.1003
      26    H12     13.096009   19.052415   21.447579 H          1 MOL1         0.0783
      27    O7      13.791227   20.239887   22.988908 O.3        1 MOL1        -0.5519
      28    H13     14.653741   20.635787   23.272326 H          1 MOL1         0.3769
      29    C9      14.988896   18.276304   22.124463 C.3        1 MOL1         0.1053
      30    H14     15.923851   18.679914   22.537579 H          1 MOL1         0.0783
      31    O8      14.354799   17.432514   23.091925 O.3        1 MOL1        -0.5519
      32    H15     13.928623   18.052176   23.727180 H          1 MOL1         0.3769
      33    C10     15.331423   17.468612   20.839964 C.3        1 MOL1         0.1018
      34    H16     14.473478   16.835360   20.580907 H          1 MOL1         0.0783
      35    C11     15.668077   18.376251   19.623598 C.3        1 MOL1         0.1043
      36    H17     16.661431   18.804766   19.789256 H          1 MOL1         0.0783
      37    O9      14.716287   19.462233   19.510632 O.3        1 MOL1        -0.3740
      38    C12     15.722690   17.613815   18.276433 C.3        1 MOL1         0.0138
      39    H18     16.613236   16.971246   18.272415 H          1 MOL1         0.0794
      40    H19     15.847662   18.346295   17.467967 H          1 MOL1         0.0794
      41    O10     14.554333   16.818544   18.041279 O.3        1 MOL1        -0.5486
      42    H20     14.618663   16.021217   18.609511 H          1 MOL1         0.3769
      43    C13     18.469097   23.849372   21.974286 C.3        1 MOL1         0.2972
      44    H21     18.938558   24.798763   22.262357 H          1 MOL1         0.0751
      45    O11     19.443113   22.901040   21.496798 O.3        1 MOL1        -0.3740
      46    C14     17.729717   23.235466   23.187774 C.3        1 MOL1         0.1003
      47    H22     16.969708   23.962523   23.502873 H          1 MOL1         0.0783
      48    O12     18.633037   22.985200   24.278753 O.3        1 MOL1        -0.5519
      49    H23     19.435263   23.541773   24.120622 H          1 MOL1         0.3769
      50    C15     17.014941   21.922603   22.796606 C.3        1 MOL1         0.1053
      51    H24     17.784151   21.170715   22.587402 H          1 MOL1         0.0783
      52    O13     16.208718   21.492171   23.897713 O.3        1 MOL1        -0.5519
      53    H25     16.626106   21.882088   24.696184 H          1 MOL1         0.3769
      54    C16     16.152325   22.070895   21.518436 C.3        1 MOL1         0.1018
      55    H26     15.199612   22.547822   21.784424 H          1 MOL1         0.0783
      56    C17     16.867030   22.875897   20.394842 C.3        1 MOL1         0.1043
      57    H27     17.639746   22.229747   19.959546 H          1 MOL1         0.0783
      58    O14     17.499935   24.066420   20.928274 O.3        1 MOL1        -0.3740
      59    C18     15.921910   23.292634   19.242828 C.3        1 MOL1         0.0138
      60    H28     15.640711   22.391773   18.680589 H          1 MOL1         0.0794
      61    H29     16.474122   23.947408   18.555417 H          1 MOL1         0.0794
      62    O15     14.743633   23.952616   19.722193 O.3        1 MOL1        -0.5486
      63    H30     14.230688   24.252215   18.939987 H          1 MOL1         0.3769
      64    C19     23.565928   22.647708   20.942798 C.3        1 MOL1         0.2972
      65    H31     24.612535   22.823117   20.662010 H          1 MOL1         0.0751
      66    O16     23.349570   21.287773   21.371483 O.3        1 MOL1        -0.3740
      67    C20     23.127091   23.596955   22.090296 C.3        1 MOL1         0.1003
      68    H32     23.228515   24.625449   21.720098 H          1 MOL1         0.0783
      69    O17     23.956101   23.433932   23.251627 O.3        1 MOL1        -0.5519
      70    H33     23.972812   22.468327   23.473567 H          1 MOL1         0.3769
      71    C21     21.638489   23.364396   22.451726 C.3        1 MOL1         0.1053
      72    H34     21.556033   22.357242   22.874891 H          1 MOL1         0.0783
      73    O18     21.224123   24.328099   23.426720 O.3        1 MOL1        -0.5519
      74    H35     21.977340   24.390809   24.056739 H          1 MOL1         0.3769
      75    C22     20.740912   23.443581   21.186528 C.3        1 MOL1         0.1018
      76    H36     20.672724   24.491297   20.866423 H          1 MOL1         0.0783
      77    C23     21.300240   22.593952   20.015077 C.3        1 MOL1         0.1043
      78    H37     21.198685   21.534729   20.280224 H          1 MOL1         0.0783
      79    O19     22.700994   22.900877   19.813406 O.3        1 MOL1        -0.3740
      80    C24     20.541476   22.800177   18.679332 C.3        1 MOL1         0.0138
      81    H38     19.608354   22.223553   18.717568 H          1 MOL1         0.0794
      82    H39     21.146919   22.380494   17.865022 H          1 MOL1         0.0794
      83    O20     20.240191   24.174791   18.411142 O.3        1 MOL1        -0.5486
      84    H40     19.527567   24.444987   19.030675 H          1 MOL1         0.3769
      85    C25     25.131550   17.635020   21.959751 C.3        1 MOL1         0.2972
      86    H41     25.786519   16.769421   22.122820 H          1 MOL1         0.0751
      87    O21     23.768540   17.237639   21.709242 O.3        1 MOL1        -0.3740
      88    C26     25.139192   18.543635   23.210621 C.3        1 MOL1         0.1003
      89    H42     26.161821   18.917782   23.350037 H          1 MOL1         0.0783
      90    O22     24.735778   17.802395   24.373840 O.3        1 MOL1        -0.5519
      91    H43     24.220516   17.020203   24.055795 H          1 MOL1         0.3769
      92    C27     24.204712   19.753523   22.993558 C.3        1 MOL1         0.1053
      93    H44     23.184711   19.363219   22.926517 H          1 MOL1         0.0783
      94    O23     24.304312   20.645423   24.107342 O.3        1 MOL1        -0.5519
      95    H45     24.294954   20.061120   24.898439 H          1 MOL1         0.3769
      96    C28     24.520435   20.502477   21.674317 C.3        1 MOL1         0.1018
      97    H46     25.409418   21.127653   21.831837 H          1 MOL1         0.0783
      98    C29     24.740511   19.541130   20.469070 C.3        1 MOL1         0.1043
      99    H47     23.757845   19.158048   20.170320 H          1 MOL1         0.0783
     100    O24     25.584754   18.418376   20.836284 O.3        1 MOL1        -0.3740
     101    C30     25.354463   20.233636   19.229319 C.3        1 MOL1         0.0138
     102    H48     24.600160   20.903046   18.793894 H          1 MOL1         0.0794
     103    H49     25.584058   19.467357   18.476705 H          1 MOL1         0.0794
     104    O25     26.533295   20.978759   19.557783 O.3        1 MOL1        -0.5486
     105    H50     26.910170   21.325695   18.719846 H          1 MOL1         0.3769
     106    C31     21.413957   13.960951   20.716618 C.3        1 MOL1         0.2972
     107    H51     21.025090   12.993898   20.372633 H          1 MOL1         0.0751
     108    O26     20.345441   14.909281   20.934859 O.3        1 MOL1        -0.3740
     109    C32     22.262224   13.800654   22.010170 C.3        1 MOL1         0.1003
     110    H52     23.124659   13.173036   21.750228 H          1 MOL1         0.0783
     111    O27     21.534458   13.157307   23.065616 O.3        1 MOL1        -0.5519
     112    H53     20.782779   13.755625   23.304453 H          1 MOL1         0.3769
     113    C33     22.802935   15.176503   22.470934 C.3        1 MOL1         0.1053
     114    H54     21.947933   15.809134   22.745141 H          1 MOL1         0.0783
     115    O28     23.664164   15.011203   23.602044 O.3        1 MOL1        -0.5519
     116    H55     23.205045   14.364294   24.183024 H          1 MOL1         0.3769
     117    C34     23.575142   15.867025   21.320342 C.3        1 MOL1         0.1018
     118    H56     24.525909   15.338075   21.173205 H          1 MOL1         0.0783
     119    C35     22.777283   15.865635   19.988108 C.3        1 MOL1         0.1043
     120    H57     21.922905   16.538895   20.110226 H          1 MOL1         0.0783
     121    O29     22.291917   14.526011   19.714891 O.3        1 MOL1        -0.3740
     122    C36     23.573278   16.375128   18.757421 C.3        1 MOL1         0.0138
     123    H58     23.437253   17.460475   18.678739 H          1 MOL1         0.0794
     124    H59     23.135743   15.934684   17.851554 H          1 MOL1         0.0794
     125    O30     24.973285   16.079098   18.821851 O.3        1 MOL1        -0.5486
     126    H60     25.377111   16.726801   19.444330 H          1 MOL1         0.3769
     127    C1      20.626389   18.882794   18.773688 C.3        1 MOL1        -0.2398
     128    H1      20.328460   19.891390   18.465588 H          1 MOL1         0.0972
     129    H2      21.607482   18.946711   19.255772 H          1 MOL1         0.0972
     130    H3      20.741404   18.278316   17.864722 H          1 MOL1         0.0972
     131    C2      19.565507   18.256709   19.705515 C.3        1 MOL1        -0.1383
     132    H4      19.844745   17.226854   19.950514 H          1 MOL1         0.0961
     133    H5      18.624891   18.183227   19.149324 H          1 MOL1         0.0961
     134    C3      19.330662   19.050978   21.013484 C.3        1 MOL1        -0.1407
     135    H6      19.053833   20.085347   20.768093 H          1 MOL1         0.0961
     136    H7      18.468067   18.617521   21.536703 H          1 MOL1         0.0961
     137    C4      20.560333   19.043092   21.956013 C.3        1 MOL1        -0.1407
     138    H8      21.412558   19.490749   21.434275 H          1 MOL1         0.0961
     139    H9      20.856011   18.010930   22.182362 H          1 MOL1         0.0961
     140    C5      20.326785   19.846258   23.260934 C.3        1 MOL1        -0.1472
     141    H10     21.279168   20.006556   23.780359 H          1 MOL1         0.0961
     142    H11     19.969297   20.841956   22.984273 H          1 MOL1         0.0961
     143    C6      19.323107   19.212370   24.245274 C.3        1 MOL1         0.1190
     144    H12     18.436494   18.896582   23.686846 H          1 MOL1         0.0923
     145    C7      19.934430   17.997257   24.960501 C.3        1 MOL1        -0.2463
     146    H13     19.178709   17.490587   25.573202 H          1 MOL1         0.0972
     147    H14     20.761447   18.298232   25.615450 H          1 MOL1         0.0972
     148    H15     20.330583   17.271131   24.245376 H          1 MOL1         0.0972
     149    N1      18.862697   20.219065   25.261044 N.4        1 MOL1        -0.5974
     150    H16     18.597353   21.110328   24.813687 H          1 MOL1         0.3625
     151    H17     18.056424   19.875660   25.790385 H          1 MOL1         0.3625
     152    H18     19.606002   20.437167   25.929081 H          1 MOL1         0.3625
@<TRIPOS>BOND
    1     1     2    1
    2     1     3    1
    3     1     4    1
    4     4     5    1
    5     4     6    1
    6     6     7    1
    7     4     8    1
    8     8     9    1
    9     8    10    1
   10    10    11    1
   11     8    12    1
   12    12    13    1
   13    12    14    1
   14    14    15    1
   15     1    16    1
   16    14    16    1
   17    14    17    1
   18    17    18    1
   19    17    19    1
   20    17    20    1
   21    20    21    1
   22    22    23    1
   23    22    24    1
   24    22    25    1
   25    25    26    1
   26    25    27    1
   27    27    28    1
   28    25    29    1
   29    29    30    1
   30    29    31    1
   31    31    32    1
   32     3    33    1
   33    29    33    1
   34    33    34    1
   35    33    35    1
   36    35    36    1
   37    22    37    1
   38    35    37    1
   39    35    38    1
   40    38    39    1
   41    38    40    1
   42    38    41    1
   43    41    42    1
   44    43    44    1
   45    43    45    1
   46    43    46    1
   47    46    47    1
   48    46    48    1
   49    48    49    1
   50    46    50    1
   51    50    51    1
   52    50    52    1
   53    52    53    1
   54    24    54    1
   55    50    54    1
   56    54    55    1
   57    54    56    1
   58    56    57    1
   59    43    58    1
   60    56    58    1
   61    56    59    1
   62    59    60    1
   63    59    61    1
   64    59    62    1
   65    62    63    1
   66    64    65    1
   67    64    66    1
   68    64    67    1
   69    67    68    1
   70    67    69    1
   71    69    70    1
   72    67    71    1
   73    71    72    1
   74    71    73    1
   75    73    74    1
   76    45    75    1
   77    71    75    1
   78    75    76    1
   79    75    77    1
   80    77    78    1
   81    64    79    1
   82    77    79    1
   83    77    80    1
   84    80    81    1
   85    80    82    1
   86    80    83    1
   87    83    84    1
   88    85    86    1
   89    85    87    1
   90    85    88    1
   91    88    89    1
   92    88    90    1
   93    90    91    1
   94    88    92    1
   95    92    93    1
   96    92    94    1
   97    94    95    1
   98    66    96    1
   99    92    96    1
  100    96    97    1
  101    96    98    1
  102    98    99    1
  103    85   100    1
  104    98   100    1
  105    98   101    1
  106   101   102    1
  107   101   103    1
  108   101   104    1
  109   104   105    1
  110   106   107    1
  111    12   108    1
  112   106   108    1
  113   106   109    1
  114   109   110    1
  115   109   111    1
  116   111   112    1
  117   109   113    1
  118   113   114    1
  119   113   115    1
  120   115   116    1
  121    87   117    1
  122   113   117    1
  123   117   118    1
  124   117   119    1
  125   119   120    1
  126   106   121    1
  127   119   121    1
  128   119   122    1
  129   122   123    1
  130   122   124    1
  131   122   125    1
  132   125   126    1
  133   127   128    1
  134   127   129    1
  135   127   130    1
  136   127   131    1
  137   131   132    1
  138   131   133    1
  139   131   134    1
  140   134   135    1
  141   134   136    1
  142   134   137    1
  143   137   138    1
  144   137   139    1
  145   137   140    1
  146   140   141    1
  147   140   142    1
  148   140   143    1
  149   143   144    1
  150   143   145    1
  151   145   146    1
  152   145   147    1
  153   145   148    1
  154   143   149    1
  155   149   150    1
  156   149   151    1
  157   149   152    1
@<TRIPOS>SUBSTRUCTURE
       1 MOL1            1 RESIDUE      1      MOL     
       2 MOL1          152 RESIDUE      1      MOL     
@<SCITEGIC>MOL_PROPERTY
feprocess Rank
SciTegic.value.IntegerValue
7

@<SCITEGIC>MOL_PROPERTY
Conf_Id
SciTegic.value.IntegerValue
583

@<SCITEGIC>MOL_PROPERTY
Probability
SciTegic.value.DoubleValue
0.91

@<SCITEGIC>MOL_PROPERTY
G
SciTegic.value.DoubleValue
555.948

@<SCITEGIC>MOL_PROPERTY
E
SciTegic.value.DoubleValue
351.224

@<SCITEGIC>MOL_PROPERTY
-TS
SciTegic.value.DoubleValue
204.723

@<SCITEGIC>MOL_PROPERTY
U+W
SciTegic.value.DoubleValue
217.088

@<SCITEGIC>MOL_PROPERTY
U
SciTegic.value.DoubleValue
301.657

@<SCITEGIC>MOL_PROPERTY
W
SciTegic.value.DoubleValue
-84.570

@<SCITEGIC>MOL_PROPERTY
W(PB)
SciTegic.value.DoubleValue
-90.586

@<SCITEGIC>MOL_PROPERTY
W(SA)
SciTegic.value.DoubleValue
6.016

@<SCITEGIC>MOL_PROPERTY
Valence
SciTegic.value.DoubleValue
150.771

@<SCITEGIC>MOL_PROPERTY
Coulomb
SciTegic.value.DoubleValue
178.235

@<SCITEGIC>MOL_PROPERTY
VdW
SciTegic.value.DoubleValue
-27.349

@<SCITEGIC>MOL_PROPERTY
VdW6
SciTegic.value.DoubleValue
-189.109

@<SCITEGIC>MOL_PROPERTY
VdW12
SciTegic.value.DoubleValue
161.760

@<SCITEGIC>MOL_PROPERTY
Bond
SciTegic.value.DoubleValue
4.832

@<SCITEGIC>MOL_PROPERTY
Angle
SciTegic.value.DoubleValue
13.323

@<SCITEGIC>MOL_PROPERTY
Pdih
SciTegic.value.DoubleValue
132.617

@<SCITEGIC>MOL_PROPERTY
Idih
SciTegic.value.DoubleValue
0.000

@<SCITEGIC>MOL_PROPERTY
Tether
SciTegic.value.DoubleValue
0.000

@<TRIPOS>MOLECULE
CD_guest-s13_fast_vm2_rndm.mol2 : feprocess host+ligand conformer 8
         152         157           2
SMALL
USER_CHARGES
 
@<TRIPOS>ATOM
       1    C1      16.283821   15.352696   20.195863 C.3        1 MOL1         0.2972
       2    H1      15.294061   15.206707   19.744177 H          1 MOL1         0.0751
       3    O1      16.418250   16.666186   20.775754 O.3        1 MOL1        -0.3740
       4    C2      16.568840   14.292219   21.293262 C.3        1 MOL1         0.1003
       5    H2      16.578861   13.311576   20.799767 H          1 MOL1         0.0783
       6    O2      15.554560   14.284529   22.308320 O.3        1 MOL1        -0.5519
       7    H3      15.491265   15.203757   22.672040 H          1 MOL1         0.3769
       8    C3      17.969570   14.523969   21.914430 C.3        1 MOL1         0.1053
       9    H4      17.964892   15.498152   22.421538 H          1 MOL1         0.0783
      10    O3      18.243524   13.488722   22.865076 O.3        1 MOL1        -0.5519
      11    H5      17.391681   13.347576   23.337509 H          1 MOL1         0.3769
      12    C4      19.052310   14.555844   20.800779 C.3        1 MOL1         0.1018
      13    H6      19.188327   13.540425   20.406723 H          1 MOL1         0.0783
      14    C5      18.662442   15.504922   19.634899 C.3        1 MOL1         0.1043
      15    H7      18.701459   16.536203   20.005408 H          1 MOL1         0.0783
      16    O4      17.314097   15.210058   19.192165 O.3        1 MOL1        -0.3740
      17    C6      19.621924   15.433758   18.420164 C.3        1 MOL1         0.0138
      18    H8      20.519620   16.021314   18.652820 H          1 MOL1         0.0794
      19    H9      19.135878   15.916380   17.561892 H          1 MOL1         0.0794
      20    O5      20.000485   14.093408   18.083760 O.3        1 MOL1        -0.5486
      21    H10     20.599050   13.771643   18.792737 H          1 MOL1         0.3769
      22    C7      14.602348   20.194994   21.740275 C.3        1 MOL1         0.2972
      23    H11     13.954394   21.051353   21.967103 H          1 MOL1         0.0751
      24    O6      15.994018   20.568339   21.685707 O.3        1 MOL1        -0.3740
      25    C8      14.440453   19.106541   22.824897 C.3        1 MOL1         0.1003
      26    H12     13.405032   18.743825   22.784769 H          1 MOL1         0.0783
      27    O7      14.708677   19.640637   24.131514 O.3        1 MOL1        -0.5519
      28    H13     15.292662   20.431144   24.011713 H          1 MOL1         0.3769
      29    C9      15.379920   17.919017   22.526307 C.3        1 MOL1         0.1053
      30    H14     16.407756   18.279953   22.629347 H          1 MOL1         0.0783
      31    O8      15.141528   16.880644   23.479305 O.3        1 MOL1        -0.5519
      32    H15     15.067204   17.346858   24.342606 H          1 MOL1         0.3769
      33    C10     15.208535   17.388003   21.079606 C.3        1 MOL1         0.1018
      34    H16     14.319020   16.745272   21.041648 H          1 MOL1         0.0783
      35    C11     15.105520   18.524543   20.018263 C.3        1 MOL1         0.1043
      36    H17     16.116223   18.922615   19.861643 H          1 MOL1         0.0783
      37    O9      14.247616   19.604537   20.473088 O.3        1 MOL1        -0.3740
      38    C12     14.594793   18.035007   18.642519 C.3        1 MOL1         0.0138
      39    H18     15.372292   17.407911   18.185359 H          1 MOL1         0.0794
      40    H19     14.452835   18.907096   17.990115 H          1 MOL1         0.0794
      41    O10     13.374858   17.291738   18.754047 O.3        1 MOL1        -0.5486
      42    H20     13.072136   17.077290   17.844610 H          1 MOL1         0.3769
      43    C13     18.442068   23.952609   21.578442 C.3        1 MOL1         0.2972
      44    H21     18.784902   24.991591   21.493601 H          1 MOL1         0.0751
      45    O11     19.550839   23.035568   21.689438 O.3        1 MOL1        -0.3740
      46    C14     17.578346   23.789515   22.856764 C.3        1 MOL1         0.1003
      47    H22     16.756078   24.514125   22.794634 H          1 MOL1         0.0783
      48    O12     18.362835   24.053503   24.032993 O.3        1 MOL1        -0.5519
      49    H23     19.300862   24.130594   23.730350 H          1 MOL1         0.3769
      50    C15     16.967084   22.370997   22.940494 C.3        1 MOL1         0.1053
      51    H24     17.785298   21.663575   23.111333 H          1 MOL1         0.0783
      52    O13     16.042475   22.311344   24.030014 O.3        1 MOL1        -0.5519
      53    H25     16.482488   22.798982   24.761590 H          1 MOL1         0.3769
      54    C16     16.268374   21.977540   21.618128 C.3        1 MOL1         0.1018
      55    H26     15.354475   22.575994   21.507081 H          1 MOL1         0.0783
      56    C17     17.188745   22.217616   20.393574 C.3        1 MOL1         0.1043
      57    H27     18.053910   21.547655   20.469243 H          1 MOL1         0.0783
      58    O14     17.646475   23.589311   20.426818 O.3        1 MOL1        -0.3740
      59    C18     16.523259   21.937723   19.020398 C.3        1 MOL1         0.0138
      60    H28     16.690508   20.884002   18.763052 H          1 MOL1         0.0794
      61    H29     17.033867   22.537304   18.255102 H          1 MOL1         0.0794
      62    O15     15.117333   22.212421   19.003138 O.3        1 MOL1        -0.5486
      63    H30     14.671678   21.461982   19.460083 H          1 MOL1         0.3769
      64    C19     23.643065   22.730373   20.969640 C.3        1 MOL1         0.2972
      65    H31     24.685718   22.913219   20.679808 H          1 MOL1         0.0751
      66    O16     23.422692   21.359897   21.359355 O.3        1 MOL1        -0.3740
      67    C20     23.241856   23.628845   22.166343 C.3        1 MOL1         0.1003
      68    H32     23.337005   24.673950   21.843910 H          1 MOL1         0.0783
      69    O17     24.096543   23.404245   23.298901 O.3        1 MOL1        -0.5519
      70    H33     24.278713   22.431914   23.349832 H          1 MOL1         0.3769
      71    C21     21.764651   23.374790   22.545915 C.3        1 MOL1         0.1053
      72    H34     21.679397   22.332493   22.870658 H          1 MOL1         0.0783
      73    O18     21.381289   24.247532   23.615370 O.3        1 MOL1        -0.5519
      74    H35     22.226213   24.446281   24.082319 H          1 MOL1         0.3769
      75    C22     20.840220   23.565038   21.319602 C.3        1 MOL1         0.1018
      76    H36     20.796763   24.635139   21.078037 H          1 MOL1         0.0783
      77    C23     21.351217   22.777596   20.080846 C.3        1 MOL1         0.1043
      78    H37     21.208192   21.706311   20.269538 H          1 MOL1         0.0783
      79    O19     22.760997   23.040325   19.870929 O.3        1 MOL1        -0.3740
      80    C24     20.602516   23.131188   18.773884 C.3        1 MOL1         0.0138
      81    H38     19.581584   22.735450   18.837710 H          1 MOL1         0.0794
      82    H39     21.097620   22.621001   17.936942 H          1 MOL1         0.0794
      83    O20     20.562126   24.544863   18.540649 O.3        1 MOL1        -0.5486
      84    H40     20.072069   24.695235   17.703589 H          1 MOL1         0.3769
      85    C25     25.148060   17.609394   21.373323 C.3        1 MOL1         0.2972
      86    H41     25.795418   16.725747   21.302260 H          1 MOL1         0.0751
      87    O21     23.759455   17.245249   21.505642 O.3        1 MOL1        -0.3740
      88    C26     25.544793   18.501464   22.577526 C.3        1 MOL1         0.1003
      89    H42     26.566067   18.860094   22.394030 H          1 MOL1         0.0783
      90    O22     25.523798   17.770874   23.813208 O.3        1 MOL1        -0.5519
      91    H43     24.620611   17.375371   23.909101 H          1 MOL1         0.3769
      92    C27     24.614218   19.734992   22.657937 C.3        1 MOL1         0.1053
      93    H44     23.599146   19.386547   22.891980 H          1 MOL1         0.0783
      94    O23     25.077005   20.611890   23.689703 O.3        1 MOL1        -0.5519
      95    H45     25.313259   20.021674   24.439411 H          1 MOL1         0.3769
      96    C28     24.572672   20.494111   21.308481 C.3        1 MOL1         0.1018
      97    H46     25.510128   21.056781   21.208137 H          1 MOL1         0.0783
      98    C29     24.392078   19.553859   20.083230 C.3        1 MOL1         0.1043
      99    H47     23.354470   19.196165   20.074455 H          1 MOL1         0.0783
     100    O24     25.283857   18.415596   20.184607 O.3        1 MOL1        -0.3740
     101    C30     24.648537   20.255483   18.727784 C.3        1 MOL1         0.0138
     102    H48     23.827100   20.959267   18.538448 H          1 MOL1         0.0794
     103    H49     24.620099   19.499984   17.931297 H          1 MOL1         0.0794
     104    O25     25.900302   20.953763   18.707755 O.3        1 MOL1        -0.5486
     105    H50     26.013578   21.335217   17.810000 H          1 MOL1         0.3769
     106    C31     21.152770   14.104010   21.959452 C.3        1 MOL1         0.2972
     107    H51     20.643083   13.148036   22.134174 H          1 MOL1         0.0751
     108    O26     20.276820   15.073518   21.350079 O.3        1 MOL1        -0.3740
     109    C32     21.667633   14.686630   23.297272 C.3        1 MOL1         0.1003
     110    H52     22.386043   13.968142   23.713060 H          1 MOL1         0.0783
     111    O27     20.588766   14.876379   24.228601 O.3        1 MOL1        -0.5519
     112    H53     19.813774   14.373005   23.880196 H          1 MOL1         0.3769
     113    C33     22.400965   16.024986   23.054149 C.3        1 MOL1         0.1053
     114    H54     21.660508   16.753082   22.709321 H          1 MOL1         0.0783
     115    O28     22.974357   16.476985   24.283818 O.3        1 MOL1        -0.5519
     116    H55     22.276475   16.306437   24.955575 H          1 MOL1         0.3769
     117    C34     23.485212   15.903888   21.954435 C.3        1 MOL1         0.1018
     118    H56     24.370931   15.420830   22.388176 H          1 MOL1         0.0783
     119    C35     22.997937   15.115657   20.704038 C.3        1 MOL1         0.1043
     120    H57     22.312206   15.764397   20.144546 H          1 MOL1         0.0783
     121    O29     22.289575   13.912407   21.092888 O.3        1 MOL1        -0.3740
     122    C36     24.141685   14.722770   19.738550 C.3        1 MOL1         0.0138
     123    H58     24.510253   15.633088   19.246426 H          1 MOL1         0.0794
     124    H59     23.731094   14.072089   18.954842 H          1 MOL1         0.0794
     125    O30     25.220412   14.066945   20.416888 O.3        1 MOL1        -0.5486
     126    H60     25.869316   13.780563   19.737464 H          1 MOL1         0.3769
     127    C1      20.498641   18.901686   21.062580 C.3        1 MOL1        -0.2398
     128    H1      20.836510   17.869323   20.910620 H          1 MOL1         0.0972
     129    H2      21.295169   19.452146   21.578536 H          1 MOL1         0.0972
     130    H3      20.365819   19.357208   20.073527 H          1 MOL1         0.0972
     131    C2      19.175509   18.942590   21.859190 C.3        1 MOL1        -0.1383
     132    H4      18.394115   18.440778   21.275106 H          1 MOL1         0.0961
     133    H5      18.843991   19.981272   21.964123 H          1 MOL1         0.0961
     134    C3      19.265035   18.271033   23.254073 C.3        1 MOL1        -0.1407
     135    H6      18.272880   18.276432   23.721507 H          1 MOL1         0.0961
     136    H7      19.522462   17.212192   23.128863 H          1 MOL1         0.0961
     137    C4      20.263069   18.929925   24.238987 C.3        1 MOL1        -0.1407
     138    H8      21.283791   18.840477   23.846495 H          1 MOL1         0.0961
     139    H9      20.243994   18.366227   25.181828 H          1 MOL1         0.0961
     140    C5      19.928185   20.415894   24.522920 C.3        1 MOL1        -0.1472
     141    H10     20.099478   21.003484   23.614496 H          1 MOL1         0.0961
     142    H11     18.857819   20.497288   24.751453 H          1 MOL1         0.0961
     143    C6      20.710443   21.047296   25.695855 C.3        1 MOL1         0.1190
     144    H12     20.382492   20.564112   26.621206 H          1 MOL1         0.0923
     145    C7      22.232148   20.858096   25.568868 C.3        1 MOL1        -0.2463
     146    H13     22.603420   21.252331   24.617437 H          1 MOL1         0.0972
     147    H14     22.509804   19.799108   25.631504 H          1 MOL1         0.0972
     148    H15     22.757305   21.379365   26.378342 H          1 MOL1         0.0972
     149    N1      20.376327   22.507627   25.830629 N.4        1 MOL1        -0.5974
     150    H16     19.363945   22.670182   25.863675 H          1 MOL1         0.3625
     151    H17     20.785938   22.912523   26.676510 H          1 MOL1         0.3625
     152    H18     20.733497   23.046136   25.029137 H          1 MOL1         0.3625
@<TRIPOS>BOND
    1     1     2    1
    2     1     3    1
    3     1     4    1
    4     4     5    1
    5     4     6    1
    6     6     7    1
    7     4     8    1
    8     8     9    1
    9     8    10    1
   10    10    11    1
   11     8    12    1
   12    12    13    1
   13    12    14    1
   14    14    15    1
   15     1    16    1
   16    14    16    1
   17    14    17    1
   18    17    18    1
   19    17    19    1
   20    17    20    1
   21    20    21    1
   22    22    23    1
   23    22    24    1
   24    22    25    1
   25    25    26    1
   26    25    27    1
   27    27    28    1
   28    25    29    1
   29    29    30    1
   30    29    31    1
   31    31    32    1
   32     3    33    1
   33    29    33    1
   34    33    34    1
   35    33    35    1
   36    35    36    1
   37    22    37    1
   38    35    37    1
   39    35    38    1
   40    38    39    1
   41    38    40    1
   42    38    41    1
   43    41    42    1
   44    43    44    1
   45    43    45    1
   46    43    46    1
   47    46    47    1
   48    46    48    1
   49    48    49    1
   50    46    50    1
   51    50    51    1
   52    50    52    1
   53    52    53    1
   54    24    54    1
   55    50    54    1
   56    54    55    1
   57    54    56    1
   58    56    57    1
   59    43    58    1
   60    56    58    1
   61    56    59    1
   62    59    60    1
   63    59    61    1
   64    59    62    1
   65    62    63    1
   66    64    65    1
   67    64    66    1
   68    64    67    1
   69    67    68    1
   70    67    69    1
   71    69    70    1
   72    67    71    1
   73    71    72    1
   74    71    73    1
   75    73    74    1
   76    45    75    1
   77    71    75    1
   78    75    76    1
   79    75    77    1
   80    77    78    1
   81    64    79    1
   82    77    79    1
   83    77    80    1
   84    80    81    1
   85    80    82    1
   86    80    83    1
   87    83    84    1
   88    85    86    1
   89    85    87    1
   90    85    88    1
   91    88    89    1
   92    88    90    1
   93    90    91    1
   94    88    92    1
   95    92    93    1
   96    92    94    1
   97    94    95    1
   98    66    96    1
   99    92    96    1
  100    96    97    1
  101    96    98    1
  102    98    99    1
  103    85   100    1
  104    98   100    1
  105    98   101    1
  106   101   102    1
  107   101   103    1
  108   101   104    1
  109   104   105    1
  110   106   107    1
  111    12   108    1
  112   106   108    1
  113   106   109    1
  114   109   110    1
  115   109   111    1
  116   111   112    1
  117   109   113    1
  118   113   114    1
  119   113   115    1
  120   115   116    1
  121    87   117    1
  122   113   117    1
  123   117   118    1
  124   117   119    1
  125   119   120    1
  126   106   121    1
  127   119   121    1
  128   119   122    1
  129   122   123    1
  130   122   124    1
  131   122   125    1
  132   125   126    1
  133   127   128    1
  134   127   129    1
  135   127   130    1
  136   127   131    1
  137   131   132    1
  138   131   133    1
  139   131   134    1
  140   134   135    1
  141   134   136    1
  142   134   137    1
  143   137   138    1
  144   137   139    1
  145   137   140    1
  146   140   141    1
  147   140   142    1
  148   140   143    1
  149   143   144    1
  150   143   145    1
  151   145   146    1
  152   145   147    1
  153   145   148    1
  154   143   149    1
  155   149   150    1
  156   149   151    1
  157   149   152    1
@<TRIPOS>SUBSTRUCTURE
       1 MOL1            1 RESIDUE      1      MOL     
       2 MOL1          152 RESIDUE      1      MOL     
@<SCITEGIC>MOL_PROPERTY
feprocess Rank
SciTegic.value.IntegerValue
8

@<SCITEGIC>MOL_PROPERTY
Conf_Id
SciTegic.value.IntegerValue
664

@<SCITEGIC>MOL_PROPERTY
Probability
SciTegic.value.DoubleValue
0.71

@<SCITEGIC>MOL_PROPERTY
G
SciTegic.value.DoubleValue
556.090

@<SCITEGIC>MOL_PROPERTY
E
SciTegic.value.DoubleValue
351.986

@<SCITEGIC>MOL_PROPERTY
-TS
SciTegic.value.DoubleValue
204.103

@<SCITEGIC>MOL_PROPERTY
U+W
SciTegic.value.DoubleValue
217.850

@<SCITEGIC>MOL_PROPERTY
U
SciTegic.value.DoubleValue
300.549

@<SCITEGIC>MOL_PROPERTY
W
SciTegic.value.DoubleValue
-82.699

@<SCITEGIC>MOL_PROPERTY
W(PB)
SciTegic.value.DoubleValue
-88.836

@<SCITEGIC>MOL_PROPERTY
W(SA)
SciTegic.value.DoubleValue
6.137

@<SCITEGIC>MOL_PROPERTY
Valence
SciTegic.value.DoubleValue
151.463

@<SCITEGIC>MOL_PROPERTY
Coulomb
SciTegic.value.DoubleValue
175.312

@<SCITEGIC>MOL_PROPERTY
VdW
SciTegic.value.DoubleValue
-26.226

@<SCITEGIC>MOL_PROPERTY
VdW6
SciTegic.value.DoubleValue
-184.520

@<SCITEGIC>MOL_PROPERTY
VdW12
SciTegic.value.DoubleValue
158.294

@<SCITEGIC>MOL_PROPERTY
Bond
SciTegic.value.DoubleValue
4.609

@<SCITEGIC>MOL_PROPERTY
Angle
SciTegic.value.DoubleValue
12.543

@<SCITEGIC>MOL_PROPERTY
Pdih
SciTegic.value.DoubleValue
134.311

@<SCITEGIC>MOL_PROPERTY
Idih
SciTegic.value.DoubleValue
0.000

@<SCITEGIC>MOL_PROPERTY
Tether
SciTegic.value.DoubleValue
0.000

