@<TRIPOS>MOLECULE
CD_guest-6_fast_vm2_rndm.mol2 : feprocess host+ligand conformer 1
         139         144           2
SMALL
USER_CHARGES
 
@<TRIPOS>ATOM
       1    C1      16.269798   15.549710   21.787540 C.3        1 MOL1         0.2972
       2    H1      15.226624   15.458944   22.111791 H          1 MOL1         0.0751
       3    O1      16.475567   16.713959   20.959012 O.3        1 MOL1        -0.3740
       4    C2      17.211304   15.625652   23.019914 C.3        1 MOL1         0.1003
       5    H2      17.069231   14.699954   23.591849 H          1 MOL1         0.0783
       6    O2      16.887727   16.745655   23.862150 O.3        1 MOL1        -0.5519
       7    H3      17.652092   17.380086   23.829569 H          1 MOL1         0.3769
       8    C3      18.689753   15.684747   22.573109 C.3        1 MOL1         0.1053
       9    H4      18.836617   16.634563   22.047561 H          1 MOL1         0.0783
      10    O3      19.548737   15.626327   23.718526 O.3        1 MOL1        -0.5519
      11    H5      19.528368   16.547338   24.090978 H          1 MOL1         0.3769
      12    C4      19.047215   14.558077   21.575718 C.3        1 MOL1         0.1018
      13    H6      19.136458   13.608932   22.118697 H          1 MOL1         0.0783
      14    C5      17.988293   14.420612   20.446924 C.3        1 MOL1         0.1043
      15    H7      18.080111   15.292947   19.786262 H          1 MOL1         0.0783
      16    O4      16.652732   14.390339   21.014048 O.3        1 MOL1        -0.3740
      17    C6      18.180328   13.159886   19.570350 C.3        1 MOL1         0.0138
      18    H8      19.074630   13.302367   18.948816 H          1 MOL1         0.0794
      19    H9      17.321872   13.072148   18.891031 H          1 MOL1         0.0794
      20    O5      18.319477   11.968398   20.354717 O.3        1 MOL1        -0.5486
      21    H10     18.356921   11.206714   19.735798 H          1 MOL1         0.3769
      22    C7      14.761825   20.350836   20.277357 C.3        1 MOL1         0.2972
      23    H11     14.212509   21.253568   19.980959 H          1 MOL1         0.0751
      24    O6      16.073272   20.672118   20.786048 O.3        1 MOL1        -0.3740
      25    C8      13.972045   19.529375   21.325738 C.3        1 MOL1         0.1003
      26    H12     13.051131   19.190708   20.833217 H          1 MOL1         0.0783
      27    O7      13.615719   20.317810   22.471411 O.3        1 MOL1        -0.5519
      28    H13     14.461797   20.548232   22.932008 H          1 MOL1         0.3769
      29    C9      14.766124   18.270981   21.755019 C.3        1 MOL1         0.1053
      30    H14     15.626641   18.598995   22.354631 H          1 MOL1         0.0783
      31    O8      13.895730   17.454653   22.546697 O.3        1 MOL1        -0.5519
      32    H15     13.557428   18.045208   23.254325 H          1 MOL1         0.3769
      33    C10     15.309714   17.457308   20.540905 C.3        1 MOL1         0.1018
      34    H16     14.521009   16.783107   20.185513 H          1 MOL1         0.0783
      35    C11     15.804292   18.342158   19.357469 C.3        1 MOL1         0.1043
      36    H17     16.803555   18.715775   19.609997 H          1 MOL1         0.0783
      37    O9      14.930708   19.478191   19.142058 O.3        1 MOL1        -0.3740
      38    C12     15.956878   17.567469   18.025866 C.3        1 MOL1         0.0138
      39    H18     16.789227   16.858016   18.128240 H          1 MOL1         0.0794
      40    H19     16.236333   18.282060   17.240420 H          1 MOL1         0.0794
      41    O10     14.763271   16.868454   17.649860 O.3        1 MOL1        -0.5486
      42    H20     14.673691   16.091357   18.241641 H          1 MOL1         0.3769
      43    C13     18.500293   23.565211   22.416742 C.3        1 MOL1         0.2972
      44    H21     18.949602   24.446509   22.891059 H          1 MOL1         0.0751
      45    O11     19.506441   22.696406   21.865116 O.3        1 MOL1        -0.3740
      46    C14     17.661960   22.779994   23.456338 C.3        1 MOL1         0.1003
      47    H22     16.860407   23.449639   23.793483 H          1 MOL1         0.0783
      48    O12     18.456967   22.401911   24.590516 O.3        1 MOL1        -0.5519
      49    H23     19.135839   21.743885   24.269406 H          1 MOL1         0.3769
      50    C15     17.003082   21.537397   22.816263 C.3        1 MOL1         0.1053
      51    H24     17.798060   20.829122   22.552499 H          1 MOL1         0.0783
      52    O13     16.118811   20.933169   23.766086 O.3        1 MOL1        -0.5519
      53    H25     16.682168   20.744563   24.550063 H          1 MOL1         0.3769
      54    C16     16.228466   21.901198   21.522997 C.3        1 MOL1         0.1018
      55    H26     15.263530   22.346917   21.797735 H          1 MOL1         0.0783
      56    C17     17.016101   22.866989   20.593512 C.3        1 MOL1         0.1043
      57    H27     17.810739   22.279312   20.122945 H          1 MOL1         0.0783
      58    O14     17.617343   23.955939   21.342069 O.3        1 MOL1        -0.3740
      59    C18     16.158086   23.465728   19.453408 C.3        1 MOL1         0.0138
      60    H28     15.921589   22.665667   18.738916 H          1 MOL1         0.0794
      61    H29     16.757266   24.213729   18.917064 H          1 MOL1         0.0794
      62    O15     14.946796   24.054812   19.941956 O.3        1 MOL1        -0.5486
      63    H30     14.494257   24.480898   19.181503 H          1 MOL1         0.3769
      64    C19     23.528792   22.651536   20.874555 C.3        1 MOL1         0.2972
      65    H31     24.540793   22.838791   20.492912 H          1 MOL1         0.0751
      66    O16     23.376956   21.303266   21.353567 O.3        1 MOL1        -0.3740
      67    C20     23.180241   23.611672   22.038377 C.3        1 MOL1         0.1003
      68    H32     23.226622   24.632984   21.638600 H          1 MOL1         0.0783
      69    O17     24.124678   23.488069   23.113970 O.3        1 MOL1        -0.5519
      70    H33     24.172956   22.527648   23.353852 H          1 MOL1         0.3769
      71    C21     21.736521   23.368620   22.550911 C.3        1 MOL1         0.1053
      72    H34     21.707423   22.394439   23.060269 H          1 MOL1         0.0783
      73    O18     21.407936   24.415009   23.471285 O.3        1 MOL1        -0.5519
      74    H35     22.150180   24.434811   24.114076 H          1 MOL1         0.3769
      75    C22     20.706700   23.333506   21.386091 C.3        1 MOL1         0.1018
      76    H36     20.513814   24.363048   21.058879 H          1 MOL1         0.0783
      77    C23     21.197285   22.492699   20.172570 C.3        1 MOL1         0.1043
      78    H37     21.179676   21.435072   20.461227 H          1 MOL1         0.0783
      79    O19     22.553278   22.869285   19.833724 O.3        1 MOL1        -0.3740
      80    C24     20.319379   22.616810   18.900563 C.3        1 MOL1         0.0138
      81    H38     19.530896   21.855724   18.949111 H          1 MOL1         0.0794
      82    H39     20.934786   22.370781   18.025016 H          1 MOL1         0.0794
      83    O20     19.734442   23.916339   18.741049 O.3        1 MOL1        -0.5486
      84    H40     19.147073   24.071040   19.514252 H          1 MOL1         0.3769
      85    C25     25.194186   17.664125   21.787748 C.3        1 MOL1         0.2972
      86    H41     25.857218   16.795729   21.891459 H          1 MOL1         0.0751
      87    O21     23.812310   17.276420   21.677569 O.3        1 MOL1        -0.3740
      88    C26     25.331392   18.581901   23.024399 C.3        1 MOL1         0.1003
      89    H42     26.366399   18.946538   23.055006 H          1 MOL1         0.0783
      90    O22     25.049110   17.849751   24.227944 O.3        1 MOL1        -0.5519
      91    H43     24.404737   17.137551   23.989008 H          1 MOL1         0.3769
      92    C27     24.395362   19.805761   22.899476 C.3        1 MOL1         0.1053
      93    H44     23.358401   19.450186   22.972572 H          1 MOL1         0.0783
      94    O23     24.665573   20.718106   23.968835 O.3        1 MOL1        -0.5519
      95    H45     24.668801   20.162604   24.780021 H          1 MOL1         0.3769
      96    C28     24.570888   20.525073   21.537301 C.3        1 MOL1         0.1018
      97    H46     25.471103   21.151994   21.585341 H          1 MOL1         0.0783
      98    C29     24.653570   19.548917   20.327343 C.3        1 MOL1         0.1043
      99    H47     23.641806   19.164654   20.141620 H          1 MOL1         0.0783
     100    O24     25.536150   18.433844   20.617706 O.3        1 MOL1        -0.3740
     101    C30     25.129322   20.223560   19.018724 C.3        1 MOL1         0.0138
     102    H48     24.332189   20.888691   18.659832 H          1 MOL1         0.0794
     103    H49     25.273319   19.446561   18.256002 H          1 MOL1         0.0794
     104    O25     26.338458   20.969920   19.204474 O.3        1 MOL1        -0.5486
     105    H50     26.618663   21.306855   18.325590 H          1 MOL1         0.3769
     106    C31     21.359335   14.000370   20.869805 C.3        1 MOL1         0.2972
     107    H51     20.975338   13.010490   20.592370 H          1 MOL1         0.0751
     108    O26     20.288045   14.963449   20.960378 O.3        1 MOL1        -0.3740
     109    C32     22.170614   13.933456   22.199163 C.3        1 MOL1         0.1003
     110    H52     23.004916   13.242183   22.022678 H          1 MOL1         0.0783
     111    O27     21.393845   13.436863   23.298989 O.3        1 MOL1        -0.5519
     112    H53     20.712878   14.129144   23.495642 H          1 MOL1         0.3769
     113    C33     22.774503   15.313337   22.554541 C.3        1 MOL1         0.1053
     114    H54     21.951902   16.001502   22.788113 H          1 MOL1         0.0783
     115    O28     23.638024   15.185232   23.689691 O.3        1 MOL1        -0.5519
     116    H55     23.141024   14.628887   24.329905 H          1 MOL1         0.3769
     117    C34     23.563117   15.897436   21.360604 C.3        1 MOL1         0.1018
     118    H56     24.490257   15.322475   21.237223 H          1 MOL1         0.0783
     119    C35     22.744280   15.843265   20.043482 C.3        1 MOL1         0.1043
     120    H57     21.891308   16.524623   20.147223 H          1 MOL1         0.0783
     121    O29     22.262530   14.487354   19.848911 O.3        1 MOL1        -0.3740
     122    C36     23.516386   16.294574   18.776606 C.3        1 MOL1         0.0138
     123    H58     23.380847   17.377173   18.657178 H          1 MOL1         0.0794
     124    H59     23.057112   15.818827   17.899901 H          1 MOL1         0.0794
     125    O30     24.915939   15.993004   18.825212 O.3        1 MOL1        -0.5486
     126    H60     25.338158   16.692549   19.375558 H          1 MOL1         0.3769
     127    C1      19.912112   19.236367   23.351052 C.2        1 MOL1         0.6021
     128    O1      20.162700   20.327461   23.823730 O.co2      1 MOL1        -0.6904
     129    O2      19.208375   18.405598   23.897806 O.co2      1 MOL1        -0.6904
     130    C2      20.447791   18.916260   21.957122 C.3        1 MOL1        -0.2102
     131    H1      20.767240   17.869262   21.949270 H          1 MOL1         0.0687
     132    H2      21.342967   19.522228   21.785484 H          1 MOL1         0.0687
     133    C3      19.408967   19.172978   20.838132 C.3        1 MOL1        -0.1974
     134    H3      18.475661   18.652411   21.085255 H          1 MOL1         0.0689
     135    H4      19.166752   20.241280   20.805367 H          1 MOL1         0.0689
     136    C4      19.911623   18.713529   19.455337 C.3        1 MOL1        -0.2987
     137    H5      20.034553   17.623673   19.430743 H          1 MOL1         0.0700
     138    H6      19.192203   18.987812   18.673517 H          1 MOL1         0.0700
     139    H7      20.875458   19.178563   19.211680 H          1 MOL1         0.0700
@<TRIPOS>BOND
    1     1     2    1
    2     1     3    1
    3     1     4    1
    4     4     5    1
    5     4     6    1
    6     6     7    1
    7     4     8    1
    8     8     9    1
    9     8    10    1
   10    10    11    1
   11     8    12    1
   12    12    13    1
   13    12    14    1
   14    14    15    1
   15     1    16    1
   16    14    16    1
   17    14    17    1
   18    17    18    1
   19    17    19    1
   20    17    20    1
   21    20    21    1
   22    22    23    1
   23    22    24    1
   24    22    25    1
   25    25    26    1
   26    25    27    1
   27    27    28    1
   28    25    29    1
   29    29    30    1
   30    29    31    1
   31    31    32    1
   32     3    33    1
   33    29    33    1
   34    33    34    1
   35    33    35    1
   36    35    36    1
   37    22    37    1
   38    35    37    1
   39    35    38    1
   40    38    39    1
   41    38    40    1
   42    38    41    1
   43    41    42    1
   44    43    44    1
   45    43    45    1
   46    43    46    1
   47    46    47    1
   48    46    48    1
   49    48    49    1
   50    46    50    1
   51    50    51    1
   52    50    52    1
   53    52    53    1
   54    24    54    1
   55    50    54    1
   56    54    55    1
   57    54    56    1
   58    56    57    1
   59    43    58    1
   60    56    58    1
   61    56    59    1
   62    59    60    1
   63    59    61    1
   64    59    62    1
   65    62    63    1
   66    64    65    1
   67    64    66    1
   68    64    67    1
   69    67    68    1
   70    67    69    1
   71    69    70    1
   72    67    71    1
   73    71    72    1
   74    71    73    1
   75    73    74    1
   76    45    75    1
   77    71    75    1
   78    75    76    1
   79    75    77    1
   80    77    78    1
   81    64    79    1
   82    77    79    1
   83    77    80    1
   84    80    81    1
   85    80    82    1
   86    80    83    1
   87    83    84    1
   88    85    86    1
   89    85    87    1
   90    85    88    1
   91    88    89    1
   92    88    90    1
   93    90    91    1
   94    88    92    1
   95    92    93    1
   96    92    94    1
   97    94    95    1
   98    66    96    1
   99    92    96    1
  100    96    97    1
  101    96    98    1
  102    98    99    1
  103    85   100    1
  104    98   100    1
  105    98   101    1
  106   101   102    1
  107   101   103    1
  108   101   104    1
  109   104   105    1
  110   106   107    1
  111    12   108    1
  112   106   108    1
  113   106   109    1
  114   109   110    1
  115   109   111    1
  116   111   112    1
  117   109   113    1
  118   113   114    1
  119   113   115    1
  120   115   116    1
  121    87   117    1
  122   113   117    1
  123   117   118    1
  124   117   119    1
  125   119   120    1
  126   106   121    1
  127   119   121    1
  128   119   122    1
  129   122   123    1
  130   122   124    1
  131   122   125    1
  132   125   126    1
  133   127   128    1
  134   127   129    2
  135   127   130    1
  136   130   131    1
  137   130   132    1
  138   130   133    1
  139   133   134    1
  140   133   135    1
  141   133   136    1
  142   136   137    1
  143   136   138    1
  144   136   139    1
@<TRIPOS>SUBSTRUCTURE
       1 MOL1            1 RESIDUE      1      MOL     
       2 MOL1          139 RESIDUE      1      MOL     
@<SCITEGIC>MOL_PROPERTY
feprocess Rank
SciTegic.value.IntegerValue
1

@<SCITEGIC>MOL_PROPERTY
Conf_Id
SciTegic.value.IntegerValue
493

@<SCITEGIC>MOL_PROPERTY
Probability
SciTegic.value.DoubleValue
32.69

@<SCITEGIC>MOL_PROPERTY
G
SciTegic.value.DoubleValue
482.611

@<SCITEGIC>MOL_PROPERTY
E
SciTegic.value.DoubleValue
304.919

@<SCITEGIC>MOL_PROPERTY
-TS
SciTegic.value.DoubleValue
177.691

@<SCITEGIC>MOL_PROPERTY
U+W
SciTegic.value.DoubleValue
182.408

@<SCITEGIC>MOL_PROPERTY
U
SciTegic.value.DoubleValue
254.459

@<SCITEGIC>MOL_PROPERTY
W
SciTegic.value.DoubleValue
-72.051

@<SCITEGIC>MOL_PROPERTY
W(PB)
SciTegic.value.DoubleValue
-78.009

@<SCITEGIC>MOL_PROPERTY
W(SA)
SciTegic.value.DoubleValue
5.958

@<SCITEGIC>MOL_PROPERTY
Valence
SciTegic.value.DoubleValue
149.952

@<SCITEGIC>MOL_PROPERTY
Coulomb
SciTegic.value.DoubleValue
126.925

@<SCITEGIC>MOL_PROPERTY
VdW
SciTegic.value.DoubleValue
-22.417

@<SCITEGIC>MOL_PROPERTY
VdW6
SciTegic.value.DoubleValue
-179.471

@<SCITEGIC>MOL_PROPERTY
VdW12
SciTegic.value.DoubleValue
157.054

@<SCITEGIC>MOL_PROPERTY
Bond
SciTegic.value.DoubleValue
5.152

@<SCITEGIC>MOL_PROPERTY
Angle
SciTegic.value.DoubleValue
15.333

@<SCITEGIC>MOL_PROPERTY
Pdih
SciTegic.value.DoubleValue
129.459

@<SCITEGIC>MOL_PROPERTY
Idih
SciTegic.value.DoubleValue
0.008

@<SCITEGIC>MOL_PROPERTY
Tether
SciTegic.value.DoubleValue
0.000

@<TRIPOS>MOLECULE
CD_guest-6_fast_vm2_rndm.mol2 : feprocess host+ligand conformer 2
         139         144           2
SMALL
USER_CHARGES
 
@<TRIPOS>ATOM
       1    C1      16.203705   15.147491   21.082816 C.3        1 MOL1         0.2972
       2    H1      15.117446   15.033191   20.975948 H          1 MOL1         0.0751
       3    O1      16.587524   16.539767   21.069781 O.3        1 MOL1        -0.3740
       4    C2      16.715795   14.451143   22.374423 C.3        1 MOL1         0.1003
       5    H2      16.511622   13.378530   22.260192 H          1 MOL1         0.0783
       6    O2      16.043740   14.920069   23.552367 O.3        1 MOL1        -0.5519
       7    H3      16.300988   15.869858   23.666564 H          1 MOL1         0.3769
       8    C3      18.247039   14.627011   22.509147 C.3        1 MOL1         0.1053
       9    H4      18.460271   15.693887   22.656433 H          1 MOL1         0.0783
      10    O3      18.724124   13.876252   23.631934 O.3        1 MOL1        -0.5519
      11    H5      18.100078   14.082041   24.362900 H          1 MOL1         0.3769
      12    C4      18.975754   14.156780   21.227544 C.3        1 MOL1         0.1018
      13    H6      18.983566   13.058776   21.226662 H          1 MOL1         0.0783
      14    C5      18.314150   14.684865   19.921581 C.3        1 MOL1         0.1043
      15    H7      18.541285   15.755073   19.833355 H          1 MOL1         0.0783
      16    O4      16.875164   14.506410   19.977923 O.3        1 MOL1        -0.3740
      17    C6      18.835931   13.997500   18.636683 C.3        1 MOL1         0.0138
      18    H8      19.857410   14.349624   18.441699 H          1 MOL1         0.0794
      19    H9      18.215178   14.321550   17.790682 H          1 MOL1         0.0794
      20    O5      18.825331   12.567938   18.743435 O.3        1 MOL1        -0.5486
      21    H10     19.109429   12.203225   17.876977 H          1 MOL1         0.3769
      22    C7      15.198128   20.389897   21.805888 C.3        1 MOL1         0.2972
      23    H11     14.615461   21.264412   22.116086 H          1 MOL1         0.0751
      24    O6      16.302635   20.752218   20.949117 O.3        1 MOL1        -0.3740
      25    C8      15.749345   19.642769   23.049555 C.3        1 MOL1         0.1003
      26    H12     14.883125   19.319496   23.640723 H          1 MOL1         0.0783
      27    O7      16.559279   20.512140   23.859027 O.3        1 MOL1        -0.5519
      28    H13     17.473487   20.125968   23.905502 H          1 MOL1         0.3769
      29    C9      16.527711   18.373999   22.622470 C.3        1 MOL1         0.1053
      30    H14     17.414236   18.691337   22.061309 H          1 MOL1         0.0783
      31    O8      16.925501   17.633077   23.782456 O.3        1 MOL1        -0.5519
      32    H15     17.703825   18.130250   24.150329 H          1 MOL1         0.3769
      33    C10     15.680329   17.479108   21.685081 C.3        1 MOL1         0.1018
      34    H16     14.905739   16.977214   22.279570 H          1 MOL1         0.0783
      35    C11     15.017642   18.295401   20.540456 C.3        1 MOL1         0.1043
      36    H17     15.807848   18.613462   19.847462 H          1 MOL1         0.0783
      37    O9      14.356050   19.468592   21.078393 O.3        1 MOL1        -0.3740
      38    C12     13.985839   17.483431   19.721123 C.3        1 MOL1         0.0138
      39    H18     14.527361   16.743437   19.116370 H          1 MOL1         0.0794
      40    H19     13.477755   18.164373   19.025229 H          1 MOL1         0.0794
      41    O10     13.029335   16.820080   20.557659 O.3        1 MOL1        -0.5486
      42    H20     12.364569   16.396363   19.971850 H          1 MOL1         0.3769
      43    C13     18.609201   24.034022   20.173909 C.3        1 MOL1         0.2972
      44    H21     19.116997   24.948852   19.842582 H          1 MOL1         0.0751
      45    O11     19.536917   23.097751   20.762234 O.3        1 MOL1        -0.3740
      46    C14     17.468516   24.352825   21.171231 C.3        1 MOL1         0.1003
      47    H22     16.723926   24.942404   20.620425 H          1 MOL1         0.0783
      48    O12     17.928398   25.127773   22.288712 O.3        1 MOL1        -0.5519
      49    H23     18.541938   24.545878   22.804393 H          1 MOL1         0.3769
      50    C15     16.775731   23.053934   21.652820 C.3        1 MOL1         0.1053
      51    H24     17.479641   22.509033   22.297153 H          1 MOL1         0.0783
      52    O13     15.615078   23.434483   22.400298 O.3        1 MOL1        -0.5519
      53    H25     15.937146   24.075253   23.071102 H          1 MOL1         0.3769
      54    C16     16.376617   22.114610   20.472817 C.3        1 MOL1         0.1018
      55    H26     15.409867   22.442288   20.071709 H          1 MOL1         0.0783
      56    C17     17.427614   22.071775   19.323161 C.3        1 MOL1         0.1043
      57    H27     18.245087   21.413975   19.640629 H          1 MOL1         0.0783
      58    O14     17.976264   23.385452   19.052391 O.3        1 MOL1        -0.3740
      59    C18     16.879302   21.476199   18.003597 C.3        1 MOL1         0.0138
      60    H28     16.685837   20.405937   18.157522 H          1 MOL1         0.0794
      61    H29     17.661344   21.556051   17.236989 H          1 MOL1         0.0794
      62    O15     15.684539   22.128419   17.554411 O.3        1 MOL1        -0.5486
      63    H30     14.951993   21.847093   18.142902 H          1 MOL1         0.3769
      64    C19     23.203623   22.589807   22.569718 C.3        1 MOL1         0.2972
      65    H31     24.171979   22.684522   23.077141 H          1 MOL1         0.0751
      66    O16     22.993023   21.250529   22.088349 O.3        1 MOL1        -0.3740
      67    C20     22.060841   22.970439   23.543864 C.3        1 MOL1         0.1003
      68    H32     22.214421   24.020638   23.823303 H          1 MOL1         0.0783
      69    O17     22.096403   22.165403   24.731906 O.3        1 MOL1        -0.5519
      70    H33     21.903474   21.225528   24.455807 H          1 MOL1         0.3769
      71    C21     20.681587   22.860289   22.856331 C.3        1 MOL1         0.1053
      72    H34     20.487851   21.800448   22.651005 H          1 MOL1         0.0783
      73    O18     19.678085   23.368049   23.741607 O.3        1 MOL1        -0.5519
      74    H35     19.786781   22.848154   24.569515 H          1 MOL1         0.3769
      75    C22     20.648468   23.630869   21.510594 C.3        1 MOL1         0.1018
      76    H36     20.534952   24.703264   21.716372 H          1 MOL1         0.0783
      77    C23     21.914821   23.388019   20.641386 C.3        1 MOL1         0.1043
      78    H37     21.832737   22.376148   20.230467 H          1 MOL1         0.0783
      79    O19     23.129258   23.478192   21.432906 O.3        1 MOL1        -0.3740
      80    C24     22.035298   24.356704   19.440748 C.3        1 MOL1         0.0138
      81    H38     21.252355   24.106606   18.712058 H          1 MOL1         0.0794
      82    H39     23.002854   24.189195   18.948770 H          1 MOL1         0.0794
      83    O20     21.908997   25.727436   19.838450 O.3        1 MOL1        -0.5486
      84    H40     22.073389   26.284316   19.046333 H          1 MOL1         0.3769
      85    C25     25.065539   17.707561   21.448794 C.3        1 MOL1         0.2972
      86    H41     25.809828   16.943346   21.191512 H          1 MOL1         0.0751
      87    O21     23.805078   17.112817   21.814137 O.3        1 MOL1        -0.3740
      88    C26     25.558064   18.523597   22.666897 C.3        1 MOL1         0.1003
      89    H42     26.520929   18.974191   22.393157 H          1 MOL1         0.0783
      90    O22     25.742751   17.654042   23.795535 O.3        1 MOL1        -0.5519
      91    H43     24.992120   17.012435   23.775974 H          1 MOL1         0.3769
      92    C27     24.578325   19.670002   23.022104 C.3        1 MOL1         0.1053
      93    H44     23.666178   19.225511   23.443082 H          1 MOL1         0.0783
      94    O23     25.208582   20.514517   23.991333 O.3        1 MOL1        -0.5519
      95    H45     25.475526   19.914934   24.721435 H          1 MOL1         0.3769
      96    C28     24.178373   20.496781   21.770288 C.3        1 MOL1         0.1018
      97    H46     25.015532   21.153157   21.500021 H          1 MOL1         0.0783
      98    C29     23.817872   19.600540   20.553678 C.3        1 MOL1         0.1043
      99    H47     22.877132   19.084164   20.779485 H          1 MOL1         0.0783
     100    O24     24.861633   18.617437   20.347002 O.3        1 MOL1        -0.3740
     101    C30     23.593859   20.377098   19.229425 C.3        1 MOL1         0.0138
     102    H48     22.532392   20.647150   19.163886 H          1 MOL1         0.0794
     103    H49     23.798116   19.704298   18.386241 H          1 MOL1         0.0794
     104    O25     24.402391   21.556021   19.120115 O.3        1 MOL1        -0.5486
     105    H50     24.138288   22.162251   19.849010 H          1 MOL1         0.3769
     106    C31     21.376210   13.836023   20.889141 C.3        1 MOL1         0.2972
     107    H51     21.003192   12.863620   20.542529 H          1 MOL1         0.0751
     108    O26     20.304892   14.703408   21.305046 O.3        1 MOL1        -0.3740
     109    C32     22.325558   13.657926   22.100371 C.3        1 MOL1         0.1003
     110    H52     23.149595   13.007240   21.780121 H          1 MOL1         0.0783
     111    O27     21.634906   13.042795   23.200839 O.3        1 MOL1        -0.5519
     112    H53     20.753113   13.487461   23.279692 H          1 MOL1         0.3769
     113    C33     22.930042   15.016692   22.535367 C.3        1 MOL1         0.1053
     114    H54     22.121332   15.634023   22.951381 H          1 MOL1         0.0783
     115    O28     23.931125   14.791181   23.534551 O.3        1 MOL1        -0.5519
     116    H55     23.517051   14.174546   24.178092 H          1 MOL1         0.3769
     117    C34     23.547166   15.778509   21.334641 C.3        1 MOL1         0.1018
     118    H56     24.470931   15.263754   21.039763 H          1 MOL1         0.0783
     119    C35     22.564990   15.835113   20.128005 C.3        1 MOL1         0.1043
     120    H57     21.705812   16.454280   20.413286 H          1 MOL1         0.0783
     121    O29     22.109497   14.493281   19.835346 O.3        1 MOL1        -0.3740
     122    C36     23.137598   16.427964   18.816043 C.3        1 MOL1         0.0138
     123    H58     22.997936   17.514825   18.833115 H          1 MOL1         0.0794
     124    H59     22.541755   16.049057   17.974984 H          1 MOL1         0.0794
     125    O30     24.520918   16.121772   18.612041 O.3        1 MOL1        -0.5486
     126    H60     25.030862   16.857149   19.019930 H          1 MOL1         0.3769
     127    C1      20.199836   19.189556   23.566496 C.2        1 MOL1         0.6021
     128    O1      19.106085   19.324942   24.083057 O.co2      1 MOL1        -0.6904
     129    O2      21.233360   19.596998   24.057716 O.co2      1 MOL1        -0.6904
     130    C2      20.262372   18.529378   22.191404 C.3        1 MOL1        -0.2102
     131    H1      19.545080   17.701930   22.182561 H          1 MOL1         0.0687
     132    H2      21.256865   18.089158   22.070397 H          1 MOL1         0.0687
     133    C3      19.959704   19.514642   21.034931 C.3        1 MOL1        -0.1974
     134    H3      19.038230   20.064569   21.264776 H          1 MOL1         0.0689
     135    H4      20.758370   20.262500   20.971812 H          1 MOL1         0.0689
     136    C4      19.808640   18.801717   19.676802 C.3        1 MOL1        -0.2987
     137    H5      18.982067   18.080514   19.707233 H          1 MOL1         0.0700
     138    H6      19.595650   19.527154   18.881800 H          1 MOL1         0.0700
     139    H7      20.726133   18.267605   19.407605 H          1 MOL1         0.0700
@<TRIPOS>BOND
    1     1     2    1
    2     1     3    1
    3     1     4    1
    4     4     5    1
    5     4     6    1
    6     6     7    1
    7     4     8    1
    8     8     9    1
    9     8    10    1
   10    10    11    1
   11     8    12    1
   12    12    13    1
   13    12    14    1
   14    14    15    1
   15     1    16    1
   16    14    16    1
   17    14    17    1
   18    17    18    1
   19    17    19    1
   20    17    20    1
   21    20    21    1
   22    22    23    1
   23    22    24    1
   24    22    25    1
   25    25    26    1
   26    25    27    1
   27    27    28    1
   28    25    29    1
   29    29    30    1
   30    29    31    1
   31    31    32    1
   32     3    33    1
   33    29    33    1
   34    33    34    1
   35    33    35    1
   36    35    36    1
   37    22    37    1
   38    35    37    1
   39    35    38    1
   40    38    39    1
   41    38    40    1
   42    38    41    1
   43    41    42    1
   44    43    44    1
   45    43    45    1
   46    43    46    1
   47    46    47    1
   48    46    48    1
   49    48    49    1
   50    46    50    1
   51    50    51    1
   52    50    52    1
   53    52    53    1
   54    24    54    1
   55    50    54    1
   56    54    55    1
   57    54    56    1
   58    56    57    1
   59    43    58    1
   60    56    58    1
   61    56    59    1
   62    59    60    1
   63    59    61    1
   64    59    62    1
   65    62    63    1
   66    64    65    1
   67    64    66    1
   68    64    67    1
   69    67    68    1
   70    67    69    1
   71    69    70    1
   72    67    71    1
   73    71    72    1
   74    71    73    1
   75    73    74    1
   76    45    75    1
   77    71    75    1
   78    75    76    1
   79    75    77    1
   80    77    78    1
   81    64    79    1
   82    77    79    1
   83    77    80    1
   84    80    81    1
   85    80    82    1
   86    80    83    1
   87    83    84    1
   88    85    86    1
   89    85    87    1
   90    85    88    1
   91    88    89    1
   92    88    90    1
   93    90    91    1
   94    88    92    1
   95    92    93    1
   96    92    94    1
   97    94    95    1
   98    66    96    1
   99    92    96    1
  100    96    97    1
  101    96    98    1
  102    98    99    1
  103    85   100    1
  104    98   100    1
  105    98   101    1
  106   101   102    1
  107   101   103    1
  108   101   104    1
  109   104   105    1
  110   106   107    1
  111    12   108    1
  112   106   108    1
  113   106   109    1
  114   109   110    1
  115   109   111    1
  116   111   112    1
  117   109   113    1
  118   113   114    1
  119   113   115    1
  120   115   116    1
  121    87   117    1
  122   113   117    1
  123   117   118    1
  124   117   119    1
  125   119   120    1
  126   106   121    1
  127   119   121    1
  128   119   122    1
  129   122   123    1
  130   122   124    1
  131   122   125    1
  132   125   126    1
  133   127   128    1
  134   127   129    2
  135   127   130    1
  136   130   131    1
  137   130   132    1
  138   130   133    1
  139   133   134    1
  140   133   135    1
  141   133   136    1
  142   136   137    1
  143   136   138    1
  144   136   139    1
@<TRIPOS>SUBSTRUCTURE
       1 MOL1            1 RESIDUE      1      MOL     
       2 MOL1          139 RESIDUE      1      MOL     
@<SCITEGIC>MOL_PROPERTY
feprocess Rank
SciTegic.value.IntegerValue
2

@<SCITEGIC>MOL_PROPERTY
Conf_Id
SciTegic.value.IntegerValue
309

@<SCITEGIC>MOL_PROPERTY
Probability
SciTegic.value.DoubleValue
32.15

@<SCITEGIC>MOL_PROPERTY
G
SciTegic.value.DoubleValue
482.621

@<SCITEGIC>MOL_PROPERTY
E
SciTegic.value.DoubleValue
304.613

@<SCITEGIC>MOL_PROPERTY
-TS
SciTegic.value.DoubleValue
178.008

@<SCITEGIC>MOL_PROPERTY
U+W
SciTegic.value.DoubleValue
182.101

@<SCITEGIC>MOL_PROPERTY
U
SciTegic.value.DoubleValue
254.422

@<SCITEGIC>MOL_PROPERTY
W
SciTegic.value.DoubleValue
-72.321

@<SCITEGIC>MOL_PROPERTY
W(PB)
SciTegic.value.DoubleValue
-78.302

@<SCITEGIC>MOL_PROPERTY
W(SA)
SciTegic.value.DoubleValue
5.981

@<SCITEGIC>MOL_PROPERTY
Valence
SciTegic.value.DoubleValue
149.194

@<SCITEGIC>MOL_PROPERTY
Coulomb
SciTegic.value.DoubleValue
127.441

@<SCITEGIC>MOL_PROPERTY
VdW
SciTegic.value.DoubleValue
-22.213

@<SCITEGIC>MOL_PROPERTY
VdW6
SciTegic.value.DoubleValue
-178.954

@<SCITEGIC>MOL_PROPERTY
VdW12
SciTegic.value.DoubleValue
156.741

@<SCITEGIC>MOL_PROPERTY
Bond
SciTegic.value.DoubleValue
5.094

@<SCITEGIC>MOL_PROPERTY
Angle
SciTegic.value.DoubleValue
14.656

@<SCITEGIC>MOL_PROPERTY
Pdih
SciTegic.value.DoubleValue
129.438

@<SCITEGIC>MOL_PROPERTY
Idih
SciTegic.value.DoubleValue
0.006

@<SCITEGIC>MOL_PROPERTY
Tether
SciTegic.value.DoubleValue
0.000

@<TRIPOS>MOLECULE
CD_guest-6_fast_vm2_rndm.mol2 : feprocess host+ligand conformer 3
         139         144           2
SMALL
USER_CHARGES
 
@<TRIPOS>ATOM
       1    C1      16.160580   15.270434   20.215534 C.3        1 MOL1         0.2972
       2    H1      15.136692   15.184577   19.829714 H          1 MOL1         0.0751
       3    O1      16.403583   16.570696   20.786296 O.3        1 MOL1        -0.3740
       4    C2      16.462343   14.173665   21.266809 C.3        1 MOL1         0.1003
       5    H2      16.384844   13.209744   20.746948 H          1 MOL1         0.0783
       6    O2      15.515043   14.188187   22.345943 O.3        1 MOL1        -0.5519
       7    H3      15.619326   15.055337   22.812847 H          1 MOL1         0.3769
       8    C3      17.909763   14.299178   21.807060 C.3        1 MOL1         0.1053
       9    H4      17.972890   15.209171   22.420590 H          1 MOL1         0.0783
      10    O3      18.169983   13.143833   22.611300 O.3        1 MOL1        -0.5519
      11    H5      17.413626   13.086356   23.235261 H          1 MOL1         0.3769
      12    C4      18.961013   14.413748   20.660317 C.3        1 MOL1         0.1018
      13    H6      19.173287   13.410222   20.271635 H          1 MOL1         0.0783
      14    C5      18.496640   15.333982   19.493430 C.3        1 MOL1         0.1043
      15    H7      18.592136   16.376115   19.825215 H          1 MOL1         0.0783
      16    O4      17.111973   15.077657   19.148326 O.3        1 MOL1        -0.3740
      17    C6      19.362448   15.201469   18.216398 C.3        1 MOL1         0.0138
      18    H8      20.348831   15.640969   18.416132 H          1 MOL1         0.0794
      19    H9      18.898848   15.798428   17.419912 H          1 MOL1         0.0794
      20    O5      19.514358   13.842760   17.786351 O.3        1 MOL1        -0.5486
      21    H10     20.118446   13.397238   18.417889 H          1 MOL1         0.3769
      22    C7      14.978302   20.090233   22.215690 C.3        1 MOL1         0.2972
      23    H11     14.443715   20.958555   22.621061 H          1 MOL1         0.0751
      24    O6      16.284415   20.457368   21.733478 O.3        1 MOL1        -0.3740
      25    C8      15.120753   19.003515   23.310113 C.3        1 MOL1         0.1003
      26    H12     14.105679   18.704337   23.601244 H          1 MOL1         0.0783
      27    O7      15.810331   19.513246   24.462106 O.3        1 MOL1        -0.5519
      28    H13     16.744378   19.719590   24.176002 H          1 MOL1         0.3769
      29    C9      15.852234   17.754099   22.773315 C.3        1 MOL1         0.1053
      30    H14     16.900136   18.028965   22.626866 H          1 MOL1         0.0783
      31    O8      15.775315   16.706538   23.745298 O.3        1 MOL1        -0.5519
      32    H15     16.065657   17.122181   24.588104 H          1 MOL1         0.3769
      33    C10     15.301440   17.259546   21.411070 C.3        1 MOL1         0.1018
      34    H16     14.441817   16.600264   21.589207 H          1 MOL1         0.0783
      35    C11     14.911590   18.406446   20.434712 C.3        1 MOL1         0.1043
      36    H17     15.843450   18.778307   19.998080 H          1 MOL1         0.0783
      37    O9      14.249103   19.503906   21.116052 O.3        1 MOL1        -0.3740
      38    C12     14.019759   17.941267   19.259133 C.3        1 MOL1         0.0138
      39    H18     14.622148   17.307487   18.594410 H          1 MOL1         0.0794
      40    H19     13.714130   18.822397   18.679036 H          1 MOL1         0.0794
      41    O10     12.868207   17.217689   19.709397 O.3        1 MOL1        -0.5486
      42    H20     12.312549   17.021703   18.923488 H          1 MOL1         0.3769
      43    C13     18.524316   23.828977   20.753341 C.3        1 MOL1         0.2972
      44    H21     18.887148   24.788383   20.362641 H          1 MOL1         0.0751
      45    O11     19.602557   23.013243   21.247677 O.3        1 MOL1        -0.3740
      46    C14     17.511910   24.043810   21.906850 C.3        1 MOL1         0.1003
      47    H22     16.676850   24.625909   21.495936 H          1 MOL1         0.0783
      48    O12     18.105206   24.781028   22.987790 O.3        1 MOL1        -0.5519
      49    H23     18.944963   24.315636   23.234360 H          1 MOL1         0.3769
      50    C15     16.939670   22.695131   22.417392 C.3        1 MOL1         0.1053
      51    H24     17.741167   22.150494   22.937378 H          1 MOL1         0.0783
      52    O13     15.866704   22.978244   23.322084 O.3        1 MOL1        -0.5519
      53    H25     16.238393   23.614171   23.971525 H          1 MOL1         0.3769
      54    C16     16.432778   21.806444   21.247691 C.3        1 MOL1         0.1018
      55    H26     15.478999   22.211887   20.886445 H          1 MOL1         0.0783
      56    C17     17.443531   21.750169   20.067594 C.3        1 MOL1         0.1043
      57    H27     18.322873   21.183844   20.396857 H          1 MOL1         0.0783
      58    O14     17.845975   23.094260   19.713017 O.3        1 MOL1        -0.3740
      59    C18     16.911807   21.048083   18.791760 C.3        1 MOL1         0.0138
      60    H28     17.145872   19.978984   18.863209 H          1 MOL1         0.0794
      61    H29     17.466749   21.430211   17.924597 H          1 MOL1         0.0794
      62    O15     15.503066   21.227990   18.592126 O.3        1 MOL1        -0.5486
      63    H30     15.042588   20.821040   19.360188 H          1 MOL1         0.3769
      64    C19     23.703335   22.859182   21.687802 C.3        1 MOL1         0.2972
      65    H31     24.777814   23.056897   21.789465 H          1 MOL1         0.0751
      66    O16     23.422477   21.450940   21.578528 O.3        1 MOL1        -0.3740
      67    C20     22.942381   23.411103   22.918090 C.3        1 MOL1         0.1003
      68    H32     23.090725   24.498713   22.934707 H          1 MOL1         0.0783
      69    O17     23.454621   22.850526   24.137166 O.3        1 MOL1        -0.5519
      70    H33     23.789742   21.943080   23.925682 H          1 MOL1         0.3769
      71    C21     21.424853   23.142850   22.788653 C.3        1 MOL1         0.1053
      72    H34     21.258587   22.057955   22.847226 H          1 MOL1         0.0783
      73    O18     20.740134   23.796559   23.862548 O.3        1 MOL1        -0.5519
      74    H35     21.239084   23.541649   24.670563 H          1 MOL1         0.3769
      75    C22     20.879019   23.652044   21.430823 C.3        1 MOL1         0.1018
      76    H36     20.787133   24.745055   21.482775 H          1 MOL1         0.0783
      77    C23     21.777265   23.246184   20.225076 C.3        1 MOL1         0.1043
      78    H37     21.646883   22.170042   20.051991 H          1 MOL1         0.0783
      79    O19     23.174796   23.511558   20.514919 O.3        1 MOL1        -0.3740
      80    C24     21.405942   23.966125   18.906753 C.3        1 MOL1         0.0138
      81    H38     20.447057   23.566236   18.550000 H          1 MOL1         0.0794
      82    H39     22.162669   23.721694   18.149344 H          1 MOL1         0.0794
      83    O20     21.308676   25.386287   19.074303 O.3        1 MOL1        -0.5486
      84    H40     21.144035   25.779807   18.189738 H          1 MOL1         0.3769
      85    C25     25.098994   17.689146   21.099504 C.3        1 MOL1         0.2972
      86    H41     25.750848   16.825693   20.915187 H          1 MOL1         0.0751
      87    O21     23.709710   17.294348   21.134514 O.3        1 MOL1        -0.3740
      88    C26     25.500060   18.426096   22.409406 C.3        1 MOL1         0.1003
      89    H42     26.523384   18.795369   22.262371 H          1 MOL1         0.0783
      90    O22     25.490054   17.560893   23.554214 O.3        1 MOL1        -0.5519
      91    H43     24.541550   17.330021   23.722524 H          1 MOL1         0.3769
      92    C27     24.588581   19.654317   22.648549 C.3        1 MOL1         0.1053
      93    H44     23.567222   19.298304   22.837432 H          1 MOL1         0.0783
      94    O23     25.065139   20.387487   23.781337 O.3        1 MOL1        -0.5519
      95    H45     25.263405   19.707113   24.462959 H          1 MOL1         0.3769
      96    C28     24.550639   20.574510   21.404809 C.3        1 MOL1         0.1018
      97    H46     25.499944   21.121926   21.344652 H          1 MOL1         0.0783
      98    C29     24.326013   19.780699   20.088451 C.3        1 MOL1         0.1043
      99    H47     23.297101   19.404888   20.090459 H          1 MOL1         0.0783
     100    O24     25.238380   18.653238   20.030283 O.3        1 MOL1        -0.3740
     101    C30     24.482011   20.630018   18.802708 C.3        1 MOL1         0.0138
     102    H48     23.573167   21.232431   18.672022 H          1 MOL1         0.0794
     103    H49     24.544045   19.949902   17.942877 H          1 MOL1         0.0794
     104    O25     25.627012   21.490191   18.835071 O.3        1 MOL1        -0.5486
     105    H50     25.363993   22.303448   19.318143 H          1 MOL1         0.3769
     106    C31     21.033910   14.243515   22.000238 C.3        1 MOL1         0.2972
     107    H51     20.550226   13.320464   22.338546 H          1 MOL1         0.0751
     108    O26     20.160714   15.037233   21.167940 O.3        1 MOL1        -0.3740
     109    C32     21.466825   15.096310   23.220861 C.3        1 MOL1         0.1003
     110    H52     22.173097   14.493043   23.805249 H          1 MOL1         0.0783
     111    O27     20.337077   15.422606   24.048684 O.3        1 MOL1        -0.5519
     112    H53     20.221400   16.408475   24.022701 H          1 MOL1         0.3769
     113    C33     22.204054   16.373720   22.753770 C.3        1 MOL1         0.1053
     114    H54     21.488846   16.985446   22.195783 H          1 MOL1         0.0783
     115    O28     22.676924   17.106871   23.889548 O.3        1 MOL1        -0.5519
     116    H55     21.882280   17.611813   24.209483 H          1 MOL1         0.3769
     117    C34     23.366274   16.051063   21.783373 C.3        1 MOL1         0.1018
     118    H56     24.205634   15.627853   22.349817 H          1 MOL1         0.0783
     119    C35     22.926545   15.063578   20.666206 C.3        1 MOL1         0.1043
     120    H57     22.251251   15.600187   19.986871 H          1 MOL1         0.0783
     121    O29     22.220930   13.931565   21.237020 O.3        1 MOL1        -0.3740
     122    C36     24.105622   14.531841   19.816794 C.3        1 MOL1         0.0138
     123    H58     24.481089   15.353234   19.191617 H          1 MOL1         0.0794
     124    H59     23.727150   13.753720   19.140496 H          1 MOL1         0.0794
     125    O30     25.168334   14.014552   20.627605 O.3        1 MOL1        -0.5486
     126    H60     25.841577   13.628522   20.025648 H          1 MOL1         0.3769
     127    C1      19.365625   18.931176   23.307713 C.2        1 MOL1         0.6021
     128    O1      18.543317   19.703720   23.761471 O.co2      1 MOL1        -0.6904
     129    O2      20.111648   18.252524   23.990863 O.co2      1 MOL1        -0.6904
     130    C2      19.376679   18.697304   21.797526 C.3        1 MOL1        -0.2102
     131    H1      18.419016   19.027363   21.385955 H          1 MOL1         0.0687
     132    H2      19.433489   17.617851   21.627861 H          1 MOL1         0.0687
     133    C3      20.525059   19.423521   21.060494 C.3        1 MOL1        -0.1974
     134    H3      20.418769   20.503645   21.209230 H          1 MOL1         0.0689
     135    H4      21.487828   19.142048   21.504399 H          1 MOL1         0.0689
     136    C4      20.522019   19.097833   19.552680 C.3        1 MOL1        -0.2987
     137    H5      19.548250   19.326193   19.102641 H          1 MOL1         0.0700
     138    H6      21.281935   19.686080   19.024489 H          1 MOL1         0.0700
     139    H7      20.736433   18.034347   19.386619 H          1 MOL1         0.0700
@<TRIPOS>BOND
    1     1     2    1
    2     1     3    1
    3     1     4    1
    4     4     5    1
    5     4     6    1
    6     6     7    1
    7     4     8    1
    8     8     9    1
    9     8    10    1
   10    10    11    1
   11     8    12    1
   12    12    13    1
   13    12    14    1
   14    14    15    1
   15     1    16    1
   16    14    16    1
   17    14    17    1
   18    17    18    1
   19    17    19    1
   20    17    20    1
   21    20    21    1
   22    22    23    1
   23    22    24    1
   24    22    25    1
   25    25    26    1
   26    25    27    1
   27    27    28    1
   28    25    29    1
   29    29    30    1
   30    29    31    1
   31    31    32    1
   32     3    33    1
   33    29    33    1
   34    33    34    1
   35    33    35    1
   36    35    36    1
   37    22    37    1
   38    35    37    1
   39    35    38    1
   40    38    39    1
   41    38    40    1
   42    38    41    1
   43    41    42    1
   44    43    44    1
   45    43    45    1
   46    43    46    1
   47    46    47    1
   48    46    48    1
   49    48    49    1
   50    46    50    1
   51    50    51    1
   52    50    52    1
   53    52    53    1
   54    24    54    1
   55    50    54    1
   56    54    55    1
   57    54    56    1
   58    56    57    1
   59    43    58    1
   60    56    58    1
   61    56    59    1
   62    59    60    1
   63    59    61    1
   64    59    62    1
   65    62    63    1
   66    64    65    1
   67    64    66    1
   68    64    67    1
   69    67    68    1
   70    67    69    1
   71    69    70    1
   72    67    71    1
   73    71    72    1
   74    71    73    1
   75    73    74    1
   76    45    75    1
   77    71    75    1
   78    75    76    1
   79    75    77    1
   80    77    78    1
   81    64    79    1
   82    77    79    1
   83    77    80    1
   84    80    81    1
   85    80    82    1
   86    80    83    1
   87    83    84    1
   88    85    86    1
   89    85    87    1
   90    85    88    1
   91    88    89    1
   92    88    90    1
   93    90    91    1
   94    88    92    1
   95    92    93    1
   96    92    94    1
   97    94    95    1
   98    66    96    1
   99    92    96    1
  100    96    97    1
  101    96    98    1
  102    98    99    1
  103    85   100    1
  104    98   100    1
  105    98   101    1
  106   101   102    1
  107   101   103    1
  108   101   104    1
  109   104   105    1
  110   106   107    1
  111    12   108    1
  112   106   108    1
  113   106   109    1
  114   109   110    1
  115   109   111    1
  116   111   112    1
  117   109   113    1
  118   113   114    1
  119   113   115    1
  120   115   116    1
  121    87   117    1
  122   113   117    1
  123   117   118    1
  124   117   119    1
  125   119   120    1
  126   106   121    1
  127   119   121    1
  128   119   122    1
  129   122   123    1
  130   122   124    1
  131   122   125    1
  132   125   126    1
  133   127   128    1
  134   127   129    2
  135   127   130    1
  136   130   131    1
  137   130   132    1
  138   130   133    1
  139   133   134    1
  140   133   135    1
  141   133   136    1
  142   136   137    1
  143   136   138    1
  144   136   139    1
@<TRIPOS>SUBSTRUCTURE
       1 MOL1            1 RESIDUE      1      MOL     
       2 MOL1          139 RESIDUE      1      MOL     
@<SCITEGIC>MOL_PROPERTY
feprocess Rank
SciTegic.value.IntegerValue
3

@<SCITEGIC>MOL_PROPERTY
Conf_Id
SciTegic.value.IntegerValue
41

@<SCITEGIC>MOL_PROPERTY
Probability
SciTegic.value.DoubleValue
16.95

@<SCITEGIC>MOL_PROPERTY
G
SciTegic.value.DoubleValue
483.002

@<SCITEGIC>MOL_PROPERTY
E
SciTegic.value.DoubleValue
305.670

@<SCITEGIC>MOL_PROPERTY
-TS
SciTegic.value.DoubleValue
177.332

@<SCITEGIC>MOL_PROPERTY
U+W
SciTegic.value.DoubleValue
183.159

@<SCITEGIC>MOL_PROPERTY
U
SciTegic.value.DoubleValue
257.741

@<SCITEGIC>MOL_PROPERTY
W
SciTegic.value.DoubleValue
-74.578

@<SCITEGIC>MOL_PROPERTY
W(PB)
SciTegic.value.DoubleValue
-80.538

@<SCITEGIC>MOL_PROPERTY
W(SA)
SciTegic.value.DoubleValue
5.960

@<SCITEGIC>MOL_PROPERTY
Valence
SciTegic.value.DoubleValue
150.396

@<SCITEGIC>MOL_PROPERTY
Coulomb
SciTegic.value.DoubleValue
129.109

@<SCITEGIC>MOL_PROPERTY
VdW
SciTegic.value.DoubleValue
-21.764

@<SCITEGIC>MOL_PROPERTY
VdW6
SciTegic.value.DoubleValue
-177.764

@<SCITEGIC>MOL_PROPERTY
VdW12
SciTegic.value.DoubleValue
155.999

@<SCITEGIC>MOL_PROPERTY
Bond
SciTegic.value.DoubleValue
5.140

@<SCITEGIC>MOL_PROPERTY
Angle
SciTegic.value.DoubleValue
15.463

@<SCITEGIC>MOL_PROPERTY
Pdih
SciTegic.value.DoubleValue
129.768

@<SCITEGIC>MOL_PROPERTY
Idih
SciTegic.value.DoubleValue
0.025

@<SCITEGIC>MOL_PROPERTY
Tether
SciTegic.value.DoubleValue
0.000

@<TRIPOS>MOLECULE
CD_guest-6_fast_vm2_rndm.mol2 : feprocess host+ligand conformer 4
         139         144           2
SMALL
USER_CHARGES
 
@<TRIPOS>ATOM
       1    C1      16.362430   15.335733   20.573369 C.3        1 MOL1         0.2972
       2    H1      15.332537   15.213464   20.214566 H          1 MOL1         0.0751
       3    O1      16.643511   16.714031   20.893750 O.3        1 MOL1        -0.3740
       4    C2      16.641173   14.422409   21.802665 C.3        1 MOL1         0.1003
       5    H2      16.501837   13.387199   21.465022 H          1 MOL1         0.0783
       6    O2      15.736623   14.672221   22.888433 O.3        1 MOL1        -0.5519
       7    H3      15.925947   15.589409   23.212496 H          1 MOL1         0.3769
       8    C3      18.108760   14.568115   22.273858 C.3        1 MOL1         0.1053
       9    H4      18.249026   15.587740   22.658076 H          1 MOL1         0.0783
      10    O3      18.381178   13.617360   23.309414 O.3        1 MOL1        -0.5519
      11    H5      17.613951   13.675874   23.921100 H          1 MOL1         0.3769
      12    C4      19.085656   14.349790   21.093053 C.3        1 MOL1         0.1018
      13    H6      19.075837   13.284900   20.825965 H          1 MOL1         0.0783
      14    C5      18.695663   15.189562   19.845175 C.3        1 MOL1         0.1043
      15    H7      18.840348   16.251315   20.082774 H          1 MOL1         0.0783
      16    O4      17.297423   14.948826   19.539494 O.3        1 MOL1        -0.3740
      17    C6      19.541693   14.901534   18.577109 C.3        1 MOL1         0.0138
      18    H8      20.400804   15.583836   18.571568 H          1 MOL1         0.0794
      19    H9      18.938999   15.146768   17.692497 H          1 MOL1         0.0794
      20    O5      20.006170   13.548460   18.495822 O.3        1 MOL1        -0.5486
      21    H10     20.755157   13.463058   19.130859 H          1 MOL1         0.3769
      22    C7      15.056403   20.373863   21.908454 C.3        1 MOL1         0.2972
      23    H11     14.452768   21.229645   22.235606 H          1 MOL1         0.0751
      24    O6      16.281169   20.797306   21.277924 O.3        1 MOL1        -0.3740
      25    C8      15.382974   19.463903   23.119932 C.3        1 MOL1         0.1003
      26    H12     14.424556   19.081775   23.493650 H          1 MOL1         0.0783
      27    O7      16.016751   20.205676   24.175780 O.3        1 MOL1        -0.5519
      28    H13     16.994593   20.252269   23.993625 H          1 MOL1         0.3769
      29    C9      16.230521   18.246434   22.679220 C.3        1 MOL1         0.1053
      30    H14     17.213120   18.615437   22.359490 H          1 MOL1         0.0783
      31    O8      16.386599   17.334151   23.772529 O.3        1 MOL1        -0.5519
      32    H15     17.092764   17.738135   24.348612 H          1 MOL1         0.3769
      33    C10     15.588565   17.504811   21.478654 C.3        1 MOL1         0.1018
      34    H16     14.760148   16.885808   21.846471 H          1 MOL1         0.0783
      35    C11     15.074756   18.468872   20.370862 C.3        1 MOL1         0.1043
      36    H17     15.951468   18.864924   19.843333 H          1 MOL1         0.0783
      37    O9      14.331022   19.572692   20.950902 O.3        1 MOL1        -0.3740
      38    C12     14.182928   17.777854   19.311782 C.3        1 MOL1         0.0138
      39    H18     14.816546   17.125770   18.695611 H          1 MOL1         0.0794
      40    H19     13.766609   18.548136   18.648826 H          1 MOL1         0.0794
      41    O10     13.129375   17.009928   19.906766 O.3        1 MOL1        -0.5486
      42    H20     12.560355   16.671707   19.181183 H          1 MOL1         0.3769
      43    C13     18.518860   24.085438   20.388260 C.3        1 MOL1         0.2972
      44    H21     18.996125   25.013936   20.049825 H          1 MOL1         0.0751
      45    O11     19.495962   23.129737   20.850179 O.3        1 MOL1        -0.3740
      46    C14     17.461696   24.363634   21.488217 C.3        1 MOL1         0.1003
      47    H22     16.680499   24.979475   21.023815 H          1 MOL1         0.0783
      48    O12     18.013153   25.087572   22.598417 O.3        1 MOL1        -0.5519
      49    H23     18.643054   24.471308   23.050594 H          1 MOL1         0.3769
      50    C15     16.797014   23.049364   21.968420 C.3        1 MOL1         0.1053
      51    H24     17.538659   22.475976   22.541083 H          1 MOL1         0.0783
      52    O13     15.686062   23.385770   22.806639 O.3        1 MOL1        -0.5519
      53    H25     16.050365   23.981725   23.496313 H          1 MOL1         0.3769
      54    C16     16.319516   22.153181   20.790873 C.3        1 MOL1         0.1018
      55    H26     15.328065   22.491282   20.465396 H          1 MOL1         0.0783
      56    C17     17.286104   22.141805   19.569676 C.3        1 MOL1         0.1043
      57    H27     18.127601   21.480828   19.810026 H          1 MOL1         0.0783
      58    O14     17.800089   23.470561   19.299194 O.3        1 MOL1        -0.3740
      59    C18     16.650269   21.581462   18.273297 C.3        1 MOL1         0.0138
      60    H28     16.528716   20.496383   18.383539 H          1 MOL1         0.0794
      61    H29     17.353925   21.742896   17.445933 H          1 MOL1         0.0794
      62    O15     15.386220   22.182349   17.964819 O.3        1 MOL1        -0.5486
      63    H30     14.725033   21.822971   18.594452 H          1 MOL1         0.3769
      64    C19     23.240664   22.506613   22.446716 C.3        1 MOL1         0.2972
      65    H31     24.233385   22.573028   22.910045 H          1 MOL1         0.0751
      66    O16     22.989276   21.182978   21.932842 O.3        1 MOL1        -0.3740
      67    C20     22.147493   22.833418   23.492897 C.3        1 MOL1         0.1003
      68    H32     22.301776   23.866897   23.828327 H          1 MOL1         0.0783
      69    O17     22.265945   21.948462   24.616774 O.3        1 MOL1        -0.5519
      70    H33     22.192013   21.040718   24.257076 H          1 MOL1         0.3769
      71    C21     20.743543   22.740049   22.847153 C.3        1 MOL1         0.1053
      72    H34     20.576936   21.701519   22.537032 H          1 MOL1         0.0783
      73    O18     19.732920   23.112448   23.789287 O.3        1 MOL1        -0.5519
      74    H35     19.371315   22.242208   24.113135 H          1 MOL1         0.3769
      75    C22     20.644777   23.614366   21.573191 C.3        1 MOL1         0.1018
      76    H36     20.548347   24.669697   21.859414 H          1 MOL1         0.0783
      77    C23     21.862933   23.417824   20.627542 C.3        1 MOL1         0.1043
      78    H37     21.749564   22.432997   20.162404 H          1 MOL1         0.0783
      79    O19     23.117875   23.447737   21.357415 O.3        1 MOL1        -0.3740
      80    C24     21.930623   24.458474   19.484616 C.3        1 MOL1         0.0138
      81    H38     21.106073   24.262031   18.786023 H          1 MOL1         0.0794
      82    H39     22.867976   24.313441   18.930914 H          1 MOL1         0.0794
      83    O20     21.843181   25.802320   19.973900 O.3        1 MOL1        -0.5486
      84    H40     21.967163   26.406751   19.209758 H          1 MOL1         0.3769
      85    C25     24.950817   17.658813   20.962901 C.3        1 MOL1         0.2972
      86    H41     25.626310   16.876755   20.592736 H          1 MOL1         0.0751
      87    O21     23.691042   17.118241   21.400559 O.3        1 MOL1        -0.3740
      88    C26     25.573639   18.421401   22.158606 C.3        1 MOL1         0.1003
      89    H42     26.497919   18.892465   21.799608 H          1 MOL1         0.0783
      90    O22     25.889773   17.525299   23.236517 O.3        1 MOL1        -0.5519
      91    H43     25.076188   16.992241   23.426147 H          1 MOL1         0.3769
      92    C27     24.624443   19.544251   22.650660 C.3        1 MOL1         0.1053
      93    H44     23.742260   19.071604   23.104257 H          1 MOL1         0.0783
      94    O23     25.312706   20.329693   23.628349 O.3        1 MOL1        -0.5519
      95    H45     25.714040   19.679645   24.246219 H          1 MOL1         0.3769
      96    C28     24.140115   20.444239   21.480062 C.3        1 MOL1         0.1018
      97    H46     24.960876   21.111248   21.186411 H          1 MOL1         0.0783
      98    C29     23.680468   19.618895   20.244691 C.3        1 MOL1         0.1043
      99    H47     22.741352   19.112270   20.501039 H          1 MOL1         0.0783
     100    O24     24.685515   18.626619   19.924719 O.3        1 MOL1        -0.3740
     101    C30     23.395868   20.461492   18.974278 C.3        1 MOL1         0.0138
     102    H48     22.339970   20.758557   18.986712 H          1 MOL1         0.0794
     103    H49     23.528808   19.821113   18.092143 H          1 MOL1         0.0794
     104    O25     24.227504   21.624837   18.866528 O.3        1 MOL1        -0.5486
     105    H50     24.019934   22.207399   19.631817 H          1 MOL1         0.3769
     106    C31     21.383111   13.756694   21.668169 C.3        1 MOL1         0.2972
     107    H51     20.936369   12.756263   21.734022 H          1 MOL1         0.0751
     108    O26     20.381132   14.783346   21.539770 O.3        1 MOL1        -0.3740
     109    C32     22.206355   14.049896   22.943719 C.3        1 MOL1         0.1003
     110    H52     23.024760   13.319664   22.989290 H          1 MOL1         0.0783
     111    O27     21.382385   13.917773   24.112902 O.3        1 MOL1        -0.5519
     112    H53     20.454120   14.110479   23.831693 H          1 MOL1         0.3769
     113    C33     22.825415   15.463867   22.872898 C.3        1 MOL1         0.1053
     114    H54     22.004392   16.189904   22.923218 H          1 MOL1         0.0783
     115    O28     23.704302   15.659509   23.985675 O.3        1 MOL1        -0.5519
     116    H55     23.197463   15.341060   24.765783 H          1 MOL1         0.3769
     117    C34     23.594904   15.691193   21.546883 C.3        1 MOL1         0.1018
     118    H56     24.580862   15.214501   21.626707 H          1 MOL1         0.0783
     119    C35     22.835804   15.166335   20.293059 C.3        1 MOL1         0.1043
     120    H57     22.021694   15.871744   20.083947 H          1 MOL1         0.0783
     121    O29     22.268681   13.851903   20.534023 O.3        1 MOL1        -0.3740
     122    C36     23.713274   15.096294   19.020646 C.3        1 MOL1         0.0138
     123    H58     23.926381   16.120851   18.686913 H          1 MOL1         0.0794
     124    H59     23.136912   14.607569   18.223596 H          1 MOL1         0.0794
     125    O30     24.941229   14.394318   19.250116 O.3        1 MOL1        -0.5486
     126    H60     25.409514   14.323868   18.389709 H          1 MOL1         0.3769
     127    C1      19.249706   19.300041   24.117979 C.2        1 MOL1         0.6021
     128    O1      18.854419   20.442650   23.976577 O.co2      1 MOL1        -0.6904
     129    O2      18.682030   18.485999   24.819245 O.co2      1 MOL1        -0.6904
     130    C2      20.473330   18.831473   23.329551 C.3        1 MOL1        -0.2102
     131    H1      20.961534   18.052501   23.926345 H          1 MOL1         0.0687
     132    H2      21.185066   19.656752   23.254242 H          1 MOL1         0.0687
     133    C3      20.149838   18.269006   21.920808 C.3        1 MOL1        -0.1974
     134    H3      21.028934   17.746823   21.525795 H          1 MOL1         0.0689
     135    H4      19.352366   17.521135   22.008450 H          1 MOL1         0.0689
     136    C4      19.731286   19.362793   20.918516 C.3        1 MOL1        -0.2987
     137    H5      20.537712   20.090421   20.768833 H          1 MOL1         0.0700
     138    H6      19.478119   18.923549   19.945685 H          1 MOL1         0.0700
     139    H7      18.853229   19.906169   21.286631 H          1 MOL1         0.0700
@<TRIPOS>BOND
    1     1     2    1
    2     1     3    1
    3     1     4    1
    4     4     5    1
    5     4     6    1
    6     6     7    1
    7     4     8    1
    8     8     9    1
    9     8    10    1
   10    10    11    1
   11     8    12    1
   12    12    13    1
   13    12    14    1
   14    14    15    1
   15     1    16    1
   16    14    16    1
   17    14    17    1
   18    17    18    1
   19    17    19    1
   20    17    20    1
   21    20    21    1
   22    22    23    1
   23    22    24    1
   24    22    25    1
   25    25    26    1
   26    25    27    1
   27    27    28    1
   28    25    29    1
   29    29    30    1
   30    29    31    1
   31    31    32    1
   32     3    33    1
   33    29    33    1
   34    33    34    1
   35    33    35    1
   36    35    36    1
   37    22    37    1
   38    35    37    1
   39    35    38    1
   40    38    39    1
   41    38    40    1
   42    38    41    1
   43    41    42    1
   44    43    44    1
   45    43    45    1
   46    43    46    1
   47    46    47    1
   48    46    48    1
   49    48    49    1
   50    46    50    1
   51    50    51    1
   52    50    52    1
   53    52    53    1
   54    24    54    1
   55    50    54    1
   56    54    55    1
   57    54    56    1
   58    56    57    1
   59    43    58    1
   60    56    58    1
   61    56    59    1
   62    59    60    1
   63    59    61    1
   64    59    62    1
   65    62    63    1
   66    64    65    1
   67    64    66    1
   68    64    67    1
   69    67    68    1
   70    67    69    1
   71    69    70    1
   72    67    71    1
   73    71    72    1
   74    71    73    1
   75    73    74    1
   76    45    75    1
   77    71    75    1
   78    75    76    1
   79    75    77    1
   80    77    78    1
   81    64    79    1
   82    77    79    1
   83    77    80    1
   84    80    81    1
   85    80    82    1
   86    80    83    1
   87    83    84    1
   88    85    86    1
   89    85    87    1
   90    85    88    1
   91    88    89    1
   92    88    90    1
   93    90    91    1
   94    88    92    1
   95    92    93    1
   96    92    94    1
   97    94    95    1
   98    66    96    1
   99    92    96    1
  100    96    97    1
  101    96    98    1
  102    98    99    1
  103    85   100    1
  104    98   100    1
  105    98   101    1
  106   101   102    1
  107   101   103    1
  108   101   104    1
  109   104   105    1
  110   106   107    1
  111    12   108    1
  112   106   108    1
  113   106   109    1
  114   109   110    1
  115   109   111    1
  116   111   112    1
  117   109   113    1
  118   113   114    1
  119   113   115    1
  120   115   116    1
  121    87   117    1
  122   113   117    1
  123   117   118    1
  124   117   119    1
  125   119   120    1
  126   106   121    1
  127   119   121    1
  128   119   122    1
  129   122   123    1
  130   122   124    1
  131   122   125    1
  132   125   126    1
  133   127   128    1
  134   127   129    2
  135   127   130    1
  136   130   131    1
  137   130   132    1
  138   130   133    1
  139   133   134    1
  140   133   135    1
  141   133   136    1
  142   136   137    1
  143   136   138    1
  144   136   139    1
@<TRIPOS>SUBSTRUCTURE
       1 MOL1            1 RESIDUE      1      MOL     
       2 MOL1          139 RESIDUE      1      MOL     
@<SCITEGIC>MOL_PROPERTY
feprocess Rank
SciTegic.value.IntegerValue
4

@<SCITEGIC>MOL_PROPERTY
Conf_Id
SciTegic.value.IntegerValue
644

@<SCITEGIC>MOL_PROPERTY
Probability
SciTegic.value.DoubleValue
2.83

@<SCITEGIC>MOL_PROPERTY
G
SciTegic.value.DoubleValue
484.069

@<SCITEGIC>MOL_PROPERTY
E
SciTegic.value.DoubleValue
306.266

@<SCITEGIC>MOL_PROPERTY
-TS
SciTegic.value.DoubleValue
177.803

@<SCITEGIC>MOL_PROPERTY
U+W
SciTegic.value.DoubleValue
183.755

@<SCITEGIC>MOL_PROPERTY
U
SciTegic.value.DoubleValue
258.091

@<SCITEGIC>MOL_PROPERTY
W
SciTegic.value.DoubleValue
-74.337

@<SCITEGIC>MOL_PROPERTY
W(PB)
SciTegic.value.DoubleValue
-80.310

@<SCITEGIC>MOL_PROPERTY
W(SA)
SciTegic.value.DoubleValue
5.973

@<SCITEGIC>MOL_PROPERTY
Valence
SciTegic.value.DoubleValue
150.704

@<SCITEGIC>MOL_PROPERTY
Coulomb
SciTegic.value.DoubleValue
129.840

@<SCITEGIC>MOL_PROPERTY
VdW
SciTegic.value.DoubleValue
-22.452

@<SCITEGIC>MOL_PROPERTY
VdW6
SciTegic.value.DoubleValue
-179.292

@<SCITEGIC>MOL_PROPERTY
VdW12
SciTegic.value.DoubleValue
156.840

@<SCITEGIC>MOL_PROPERTY
Bond
SciTegic.value.DoubleValue
5.138

@<SCITEGIC>MOL_PROPERTY
Angle
SciTegic.value.DoubleValue
15.447

@<SCITEGIC>MOL_PROPERTY
Pdih
SciTegic.value.DoubleValue
130.112

@<SCITEGIC>MOL_PROPERTY
Idih
SciTegic.value.DoubleValue
0.007

@<SCITEGIC>MOL_PROPERTY
Tether
SciTegic.value.DoubleValue
0.000

@<TRIPOS>MOLECULE
CD_guest-6_fast_vm2_rndm.mol2 : feprocess host+ligand conformer 5
         139         144           2
SMALL
USER_CHARGES
 
@<TRIPOS>ATOM
       1    C1      16.103500   15.080199   21.526941 C.3        1 MOL1         0.2972
       2    H1      15.011612   14.974832   21.564903 H          1 MOL1         0.0751
       3    O1      16.507032   16.458179   21.417702 O.3        1 MOL1        -0.3740
       4    C2      16.734989   14.497026   22.812200 C.3        1 MOL1         0.1003
       5    H2      16.510343   13.422775   22.837406 H          1 MOL1         0.0783
       6    O2      16.180987   15.127039   23.978192 O.3        1 MOL1        -0.5519
       7    H3      15.871883   16.025036   23.700853 H          1 MOL1         0.3769
       8    C3      18.270120   14.667076   22.780173 C.3        1 MOL1         0.1053
       9    H4      18.489296   15.740604   22.840593 H          1 MOL1         0.0783
      10    O3      18.848903   13.997939   23.905016 O.3        1 MOL1        -0.5519
      11    H5      18.296353   14.271155   24.671236 H          1 MOL1         0.3769
      12    C4      18.880506   14.117475   21.465670 C.3        1 MOL1         0.1018
      13    H6      18.948479   13.024266   21.541979 H          1 MOL1         0.0783
      14    C5      18.079730   14.524065   20.193688 C.3        1 MOL1         0.1043
      15    H7      18.295685   15.581067   19.992442 H          1 MOL1         0.0783
      16    O4      16.650873   14.367055   20.399234 O.3        1 MOL1        -0.3740
      17    C6      18.483986   13.729401   18.929261 C.3        1 MOL1         0.0138
      18    H8      19.491491   14.045006   18.626273 H          1 MOL1         0.0794
      19    H9      17.799534   13.996928   18.113030 H          1 MOL1         0.0794
      20    O5      18.464642   12.314005   19.152658 O.3        1 MOL1        -0.5486
      21    H10     18.665729   11.874797   18.297573 H          1 MOL1         0.3769
      22    C7      14.994869   20.250409   20.566088 C.3        1 MOL1         0.2972
      23    H11     14.377421   21.092075   20.227435 H          1 MOL1         0.0751
      24    O6      16.324451   20.687257   20.916627 O.3        1 MOL1        -0.3740
      25    C8      14.328316   19.511351   21.763583 C.3        1 MOL1         0.1003
      26    H12     13.365737   19.127878   21.400988 H          1 MOL1         0.0783
      27    O7      14.080354   20.380489   22.878349 O.3        1 MOL1        -0.5519
      28    H13     14.966321   20.652599   23.229333 H          1 MOL1         0.3769
      29    C9      15.180607   18.296432   22.204065 C.3        1 MOL1         0.1053
      30    H14     16.130367   18.668590   22.612225 H          1 MOL1         0.0783
      31    O8      14.478432   17.552555   23.205952 O.3        1 MOL1        -0.5519
      32    H15     14.133958   18.226922   23.832878 H          1 MOL1         0.3769
      33    C10     15.492307   17.382801   20.994618 C.3        1 MOL1         0.1018
      34    H16     14.567631   16.872846   20.693999 H          1 MOL1         0.0783
      35    C11     16.046444   18.182565   19.784265 C.3        1 MOL1         0.1043
      36    H17     17.033134   18.580395   20.054153 H          1 MOL1         0.0783
      37    O9      15.142660   19.282321   19.500512 O.3        1 MOL1        -0.3740
      38    C12     16.247079   17.345857   18.493401 C.3        1 MOL1         0.0138
      39    H18     17.267533   16.942296   18.498907 H          1 MOL1         0.0794
      40    H19     16.177254   18.017328   17.627297 H          1 MOL1         0.0794
      41    O10     15.310383   16.269651   18.359507 O.3        1 MOL1        -0.5486
      42    H20     15.594266   15.562046   18.983967 H          1 MOL1         0.3769
      43    C13     18.676325   23.845116   22.115693 C.3        1 MOL1         0.2972
      44    H21     19.110889   24.778735   22.494467 H          1 MOL1         0.0751
      45    O11     19.662108   23.029977   21.452635 O.3        1 MOL1        -0.3740
      46    C14     18.041982   23.045502   23.281552 C.3        1 MOL1         0.1003
      47    H22     17.222531   23.659482   23.676214 H          1 MOL1         0.0783
      48    O12     18.989491   22.821789   24.338790 O.3        1 MOL1        -0.5519
      49    H23     19.539914   22.023569   24.110119 H          1 MOL1         0.3769
      50    C15     17.427815   21.722299   22.765387 C.3        1 MOL1         0.1053
      51    H24     18.247047   21.080827   22.415967 H          1 MOL1         0.0783
      52    O13     16.715793   21.066476   23.821226 O.3        1 MOL1        -0.5519
      53    H25     17.422957   20.642318   24.381569 H          1 MOL1         0.3769
      54    C16     16.471931   21.965107   21.569099 C.3        1 MOL1         0.1018
      55    H26     15.517710   22.350791   21.950104 H          1 MOL1         0.0783
      56    C17     17.053862   22.950662   20.515113 C.3        1 MOL1         0.1043
      57    H27     17.841591   22.420487   19.965507 H          1 MOL1         0.0783
      58    O14     17.628239   24.117819   21.160517 O.3        1 MOL1        -0.3740
      59    C18     16.015696   23.427173   19.471266 C.3        1 MOL1         0.0138
      60    H28     15.776493   22.584334   18.808900 H          1 MOL1         0.0794
      61    H29     16.476262   24.207954   18.851238 H          1 MOL1         0.0794
      62    O15     14.816999   23.919277   20.083310 O.3        1 MOL1        -0.5486
      63    H30     14.243616   24.277497   19.370882 H          1 MOL1         0.3769
      64    C19     23.639362   22.798307   20.565322 C.3        1 MOL1         0.2972
      65    H31     24.682472   22.882350   20.234807 H          1 MOL1         0.0751
      66    O16     23.310031   21.441959   20.929061 O.3        1 MOL1        -0.3740
      67    C20     23.342717   23.763424   21.742610 C.3        1 MOL1         0.1003
      68    H32     23.486763   24.781548   21.358139 H          1 MOL1         0.0783
      69    O17     24.237800   23.560817   22.846728 O.3        1 MOL1        -0.5519
      70    H33     24.026255   22.668441   23.221153 H          1 MOL1         0.3769
      71    C21     21.869819   23.642251   22.206248 C.3        1 MOL1         0.1053
      72    H34     21.744137   22.671709   22.705777 H          1 MOL1         0.0783
      73    O18     21.597445   24.705782   23.125418 O.3        1 MOL1        -0.5519
      74    H35     22.283961   24.630446   23.822802 H          1 MOL1         0.3769
      75    C22     20.863870   23.697220   21.022107 C.3        1 MOL1         0.1018
      76    H36     20.672103   24.746616   20.766610 H          1 MOL1         0.0783
      77    C23     21.342018   22.937569   19.750215 C.3        1 MOL1         0.1043
      78    H37     21.196426   21.863925   19.921697 H          1 MOL1         0.0783
      79    O19     22.748187   23.185093   19.499036 O.3        1 MOL1        -0.3740
      80    C24     20.539578   23.286766   18.472137 C.3        1 MOL1         0.0138
      81    H38     19.546948   22.824629   18.545022 H          1 MOL1         0.0794
      82    H39     21.044076   22.828069   17.611434 H          1 MOL1         0.0794
      83    O20     20.402839   24.698182   18.264417 O.3        1 MOL1        -0.5486
      84    H40     19.751263   25.031960   18.917880 H          1 MOL1         0.3769
      85    C25     24.738475   17.793793   22.172852 C.3        1 MOL1         0.2972
      86    H41     25.309373   16.932343   22.542343 H          1 MOL1         0.0751
      87    O21     23.478277   17.393574   21.600059 O.3        1 MOL1        -0.3740
      88    C26     24.443503   18.778458   23.330204 C.3        1 MOL1         0.1003
      89    H42     25.405676   19.148398   23.706597 H          1 MOL1         0.0783
      90    O22     23.752174   18.096572   24.390738 O.3        1 MOL1        -0.5519
      91    H43     23.623041   17.163450   24.097731 H          1 MOL1         0.3769
      92    C27     23.635153   19.991942   22.802410 C.3        1 MOL1         0.1053
      93    H44     22.654889   19.630798   22.470165 H          1 MOL1         0.0783
      94    O23     23.447527   20.965648   23.835349 O.3        1 MOL1        -0.5519
      95    H45     22.503102   20.834067   24.125228 H          1 MOL1         0.3769
      96    C28     24.321741   20.645411   21.575234 C.3        1 MOL1         0.1018
      97    H46     25.172622   21.248031   21.918226 H          1 MOL1         0.0783
      98    C29     24.794385   19.601999   20.522752 C.3        1 MOL1         0.1043
      99    H47     23.902391   19.215208   20.013854 H          1 MOL1         0.0783
     100    O24     25.486621   18.499377   21.161267 O.3        1 MOL1        -0.3740
     101    C30     25.717282   20.196977   19.432530 C.3        1 MOL1         0.0138
     102    H48     25.115070   20.848263   18.784765 H          1 MOL1         0.0794
     103    H49     26.095840   19.376685   18.808016 H          1 MOL1         0.0794
     104    O25     26.806550   20.941433   19.992048 O.3        1 MOL1        -0.5486
     105    H50     27.388655   21.220131   19.251702 H          1 MOL1         0.3769
     106    C31     21.280804   13.899836   20.975062 C.3        1 MOL1         0.2972
     107    H51     20.953839   12.892331   20.687180 H          1 MOL1         0.0751
     108    O26     20.173323   14.736792   21.353257 O.3        1 MOL1        -0.3740
     109    C32     22.254031   13.851348   22.182186 C.3        1 MOL1         0.1003
     110    H52     23.130662   13.267204   21.873378 H          1 MOL1         0.0783
     111    O27     21.644042   13.216959   23.317660 O.3        1 MOL1        -0.5519
     112    H53     20.746737   13.620480   23.437025 H          1 MOL1         0.3769
     113    C33     22.735950   15.277742   22.552335 C.3        1 MOL1         0.1053
     114    H54     21.870086   15.851985   22.909474 H          1 MOL1         0.0783
     115    O28     23.717835   15.188234   23.589585 O.3        1 MOL1        -0.5519
     116    H55     23.369646   14.508078   24.209779 H          1 MOL1         0.3769
     117    C34     23.315391   15.997050   21.305158 C.3        1 MOL1         0.1018
     118    H56     24.269964   15.530068   21.030040 H          1 MOL1         0.0783
     119    C35     22.342280   15.921340   20.099005 C.3        1 MOL1         0.1043
     120    H57     21.445881   16.506472   20.342626 H          1 MOL1         0.0783
     121    O29     21.968116   14.539692   19.875543 O.3        1 MOL1        -0.3740
     122    C36     22.916638   16.513529   18.786792 C.3        1 MOL1         0.0138
     123    H58     22.766090   17.600887   18.805949 H          1 MOL1         0.0794
     124    H59     22.333839   16.124740   17.941285 H          1 MOL1         0.0794
     125    O30     24.308824   16.226584   18.603384 O.3        1 MOL1        -0.5486
     126    H60     24.800982   16.730162   19.288927 H          1 MOL1         0.3769
     127    C1      19.894480   19.608774   24.092264 C.2        1 MOL1         0.6021
     128    O1      20.662549   20.544403   23.961243 O.co2      1 MOL1        -0.6904
     129    O2      18.905061   19.661337   24.796685 O.co2      1 MOL1        -0.6904
     130    C2      20.115613   18.338475   23.270676 C.3        1 MOL1        -0.2102
     131    H1      19.710184   17.504274   23.854498 H          1 MOL1         0.0687
     132    H2      21.190341   18.157754   23.181000 H          1 MOL1         0.0687
     133    C3      19.445641   18.356789   21.871376 C.3        1 MOL1        -0.1974
     134    H3      19.442395   17.342562   21.456016 H          1 MOL1         0.0689
     135    H4      18.395907   18.655862   21.981698 H          1 MOL1         0.0689
     136    C4      20.154720   19.296649   20.876093 C.3        1 MOL1        -0.2987
     137    H5      21.189319   18.976707   20.701694 H          1 MOL1         0.0700
     138    H6      19.631301   19.309852   19.912140 H          1 MOL1         0.0700
     139    H7      20.179532   20.321468   21.265222 H          1 MOL1         0.0700
@<TRIPOS>BOND
    1     1     2    1
    2     1     3    1
    3     1     4    1
    4     4     5    1
    5     4     6    1
    6     6     7    1
    7     4     8    1
    8     8     9    1
    9     8    10    1
   10    10    11    1
   11     8    12    1
   12    12    13    1
   13    12    14    1
   14    14    15    1
   15     1    16    1
   16    14    16    1
   17    14    17    1
   18    17    18    1
   19    17    19    1
   20    17    20    1
   21    20    21    1
   22    22    23    1
   23    22    24    1
   24    22    25    1
   25    25    26    1
   26    25    27    1
   27    27    28    1
   28    25    29    1
   29    29    30    1
   30    29    31    1
   31    31    32    1
   32     3    33    1
   33    29    33    1
   34    33    34    1
   35    33    35    1
   36    35    36    1
   37    22    37    1
   38    35    37    1
   39    35    38    1
   40    38    39    1
   41    38    40    1
   42    38    41    1
   43    41    42    1
   44    43    44    1
   45    43    45    1
   46    43    46    1
   47    46    47    1
   48    46    48    1
   49    48    49    1
   50    46    50    1
   51    50    51    1
   52    50    52    1
   53    52    53    1
   54    24    54    1
   55    50    54    1
   56    54    55    1
   57    54    56    1
   58    56    57    1
   59    43    58    1
   60    56    58    1
   61    56    59    1
   62    59    60    1
   63    59    61    1
   64    59    62    1
   65    62    63    1
   66    64    65    1
   67    64    66    1
   68    64    67    1
   69    67    68    1
   70    67    69    1
   71    69    70    1
   72    67    71    1
   73    71    72    1
   74    71    73    1
   75    73    74    1
   76    45    75    1
   77    71    75    1
   78    75    76    1
   79    75    77    1
   80    77    78    1
   81    64    79    1
   82    77    79    1
   83    77    80    1
   84    80    81    1
   85    80    82    1
   86    80    83    1
   87    83    84    1
   88    85    86    1
   89    85    87    1
   90    85    88    1
   91    88    89    1
   92    88    90    1
   93    90    91    1
   94    88    92    1
   95    92    93    1
   96    92    94    1
   97    94    95    1
   98    66    96    1
   99    92    96    1
  100    96    97    1
  101    96    98    1
  102    98    99    1
  103    85   100    1
  104    98   100    1
  105    98   101    1
  106   101   102    1
  107   101   103    1
  108   101   104    1
  109   104   105    1
  110   106   107    1
  111    12   108    1
  112   106   108    1
  113   106   109    1
  114   109   110    1
  115   109   111    1
  116   111   112    1
  117   109   113    1
  118   113   114    1
  119   113   115    1
  120   115   116    1
  121    87   117    1
  122   113   117    1
  123   117   118    1
  124   117   119    1
  125   119   120    1
  126   106   121    1
  127   119   121    1
  128   119   122    1
  129   122   123    1
  130   122   124    1
  131   122   125    1
  132   125   126    1
  133   127   128    1
  134   127   129    2
  135   127   130    1
  136   130   131    1
  137   130   132    1
  138   130   133    1
  139   133   134    1
  140   133   135    1
  141   133   136    1
  142   136   137    1
  143   136   138    1
  144   136   139    1
@<TRIPOS>SUBSTRUCTURE
       1 MOL1            1 RESIDUE      1      MOL     
       2 MOL1          139 RESIDUE      1      MOL     
@<SCITEGIC>MOL_PROPERTY
feprocess Rank
SciTegic.value.IntegerValue
5

@<SCITEGIC>MOL_PROPERTY
Conf_Id
SciTegic.value.IntegerValue
948

@<SCITEGIC>MOL_PROPERTY
Probability
SciTegic.value.DoubleValue
2.70

@<SCITEGIC>MOL_PROPERTY
G
SciTegic.value.DoubleValue
484.098

@<SCITEGIC>MOL_PROPERTY
E
SciTegic.value.DoubleValue
306.664

@<SCITEGIC>MOL_PROPERTY
-TS
SciTegic.value.DoubleValue
177.434

@<SCITEGIC>MOL_PROPERTY
U+W
SciTegic.value.DoubleValue
184.153

@<SCITEGIC>MOL_PROPERTY
U
SciTegic.value.DoubleValue
260.661

@<SCITEGIC>MOL_PROPERTY
W
SciTegic.value.DoubleValue
-76.508

@<SCITEGIC>MOL_PROPERTY
W(PB)
SciTegic.value.DoubleValue
-82.481

@<SCITEGIC>MOL_PROPERTY
W(SA)
SciTegic.value.DoubleValue
5.973

@<SCITEGIC>MOL_PROPERTY
Valence
SciTegic.value.DoubleValue
151.888

@<SCITEGIC>MOL_PROPERTY
Coulomb
SciTegic.value.DoubleValue
130.520

@<SCITEGIC>MOL_PROPERTY
VdW
SciTegic.value.DoubleValue
-21.747

@<SCITEGIC>MOL_PROPERTY
VdW6
SciTegic.value.DoubleValue
-178.782

@<SCITEGIC>MOL_PROPERTY
VdW12
SciTegic.value.DoubleValue
157.034

@<SCITEGIC>MOL_PROPERTY
Bond
SciTegic.value.DoubleValue
5.174

@<SCITEGIC>MOL_PROPERTY
Angle
SciTegic.value.DoubleValue
15.137

@<SCITEGIC>MOL_PROPERTY
Pdih
SciTegic.value.DoubleValue
131.565

@<SCITEGIC>MOL_PROPERTY
Idih
SciTegic.value.DoubleValue
0.013

@<SCITEGIC>MOL_PROPERTY
Tether
SciTegic.value.DoubleValue
0.000

@<TRIPOS>MOLECULE
CD_guest-6_fast_vm2_rndm.mol2 : feprocess host+ligand conformer 6
         139         144           2
SMALL
USER_CHARGES
 
@<TRIPOS>ATOM
       1    C1      16.102935   15.039046   21.507136 C.3        1 MOL1         0.2972
       2    H1      15.016298   14.897579   21.567786 H          1 MOL1         0.0751
       3    O1      16.462928   16.432041   21.462977 O.3        1 MOL1        -0.3740
       4    C2      16.785240   14.412542   22.745038 C.3        1 MOL1         0.1003
       5    H2      16.581180   13.334036   22.727158 H          1 MOL1         0.0783
       6    O2      16.251610   14.977631   23.953413 O.3        1 MOL1        -0.5519
       7    H3      15.967308   15.901302   23.740013 H          1 MOL1         0.3769
       8    C3      18.316879   14.611691   22.680890 C.3        1 MOL1         0.1053
       9    H4      18.526535   15.683264   22.802957 H          1 MOL1         0.0783
      10    O3      18.933001   13.878663   23.744825 O.3        1 MOL1        -0.5519
      11    H5      18.423716   14.124698   24.548998 H          1 MOL1         0.3769
      12    C4      18.898276   14.151445   21.319253 C.3        1 MOL1         0.1018
      13    H6      18.987796   13.057086   21.328109 H          1 MOL1         0.0783
      14    C5      18.054581   14.616770   20.096406 C.3        1 MOL1         0.1043
      15    H7      18.235229   15.691078   19.958327 H          1 MOL1         0.0783
      16    O4      16.638140   14.402400   20.329580 O.3        1 MOL1        -0.3740
      17    C6      18.445455   13.917774   18.772559 C.3        1 MOL1         0.0138
      18    H8      19.432609   14.286350   18.462211 H          1 MOL1         0.0794
      19    H9      17.728185   14.213155   17.995078 H          1 MOL1         0.0794
      20    O5      18.478494   12.491193   18.904287 O.3        1 MOL1        -0.5486
      21    H10     18.660544   12.114051   18.015976 H          1 MOL1         0.3769
      22    C7      14.885972   20.226856   20.746765 C.3        1 MOL1         0.2972
      23    H11     14.231988   21.066571   20.479413 H          1 MOL1         0.0751
      24    O6      16.252865   20.664626   20.899249 O.3        1 MOL1        -0.3740
      25    C8      14.377479   19.509107   22.033635 C.3        1 MOL1         0.1003
      26    H12     13.367251   19.142598   21.809635 H          1 MOL1         0.0783
      27    O7      14.301559   20.387756   23.165807 O.3        1 MOL1        -0.5519
      28    H13     15.235117   20.620265   23.402551 H          1 MOL1         0.3769
      29    C9      15.255840   18.280567   22.371675 C.3        1 MOL1         0.1053
      30    H14     16.255410   18.636427   22.652678 H          1 MOL1         0.0783
      31    O8      14.674237   17.555641   23.461095 O.3        1 MOL1        -0.5519
      32    H15     14.421138   18.239949   24.119929 H          1 MOL1         0.3769
      33    C10     15.405464   17.351464   21.145697 C.3        1 MOL1         0.1018
      34    H16     14.447878   16.843545   20.971248 H          1 MOL1         0.0783
      35    C11     15.812198   18.136206   19.870140 C.3        1 MOL1         0.1043
      36    H17     16.825505   18.526953   20.022029 H          1 MOL1         0.0783
      37    O9      14.887666   19.240839   19.687059 O.3        1 MOL1        -0.3740
      38    C12     15.857172   17.290645   18.570996 C.3        1 MOL1         0.0138
      39    H18     16.865110   16.868385   18.468800 H          1 MOL1         0.0794
      40    H19     15.705106   17.959662   17.713575 H          1 MOL1         0.0794
      41    O10     14.893184   16.231301   18.547480 O.3        1 MOL1        -0.5486
      42    H20     15.268736   15.493848   19.081900 H          1 MOL1         0.3769
      43    C13     18.753530   23.803237   21.928695 C.3        1 MOL1         0.2972
      44    H21     19.190937   24.736341   22.302290 H          1 MOL1         0.0751
      45    O11     19.681402   23.067411   21.102986 O.3        1 MOL1        -0.3740
      46    C14     18.303837   22.907613   23.114432 C.3        1 MOL1         0.1003
      47    H22     17.557529   23.476192   23.683593 H          1 MOL1         0.0783
      48    O12     19.406039   22.589661   23.981956 O.3        1 MOL1        -0.5519
      49    H23     19.576087   21.613077   23.909622 H          1 MOL1         0.3769
      50    C15     17.625185   21.619424   22.596023 C.3        1 MOL1         0.1053
      51    H24     18.388668   21.034328   22.072124 H          1 MOL1         0.0783
      52    O13     17.106310   20.863530   23.697141 O.3        1 MOL1        -0.5519
      53    H25     17.900779   20.403923   24.077699 H          1 MOL1         0.3769
      54    C16     16.505202   21.916358   21.571659 C.3        1 MOL1         0.1018
      55    H26     15.622224   22.296459   22.100374 H          1 MOL1         0.0783
      56    C17     16.956441   22.942115   20.495193 C.3        1 MOL1         0.1043
      57    H27     17.684374   22.447631   19.838341 H          1 MOL1         0.0783
      58    O14     17.585329   24.087668   21.126494 O.3        1 MOL1        -0.3740
      59    C18     15.799644   23.446136   19.599415 C.3        1 MOL1         0.0138
      60    H28     15.491899   22.626461   18.936237 H          1 MOL1         0.0794
      61    H29     16.178318   24.256399   18.962077 H          1 MOL1         0.0794
      62    O15     14.675946   23.898062   20.365759 O.3        1 MOL1        -0.5486
      63    H30     14.019374   24.273498   19.739191 H          1 MOL1         0.3769
      64    C19     23.709911   22.752183   20.519710 C.3        1 MOL1         0.2972
      65    H31     24.771974   22.799043   20.249985 H          1 MOL1         0.0751
      66    O16     23.333877   21.429320   20.959791 O.3        1 MOL1        -0.3740
      67    C20     23.361587   23.802010   21.602935 C.3        1 MOL1         0.1003
      68    H32     23.538991   24.788077   21.153875 H          1 MOL1         0.0783
      69    O17     24.195732   23.672211   22.764063 O.3        1 MOL1        -0.5519
      70    H33     23.935461   22.825351   23.206927 H          1 MOL1         0.3769
      71    C21     21.863741   23.725663   21.989128 C.3        1 MOL1         0.1053
      72    H34     21.700197   22.792424   22.545569 H          1 MOL1         0.0783
      73    O18     21.569467   24.854281   22.819959 O.3        1 MOL1        -0.5519
      74    H35     22.226732   24.821255   23.548397 H          1 MOL1         0.3769
      75    C22     20.922849   23.713291   20.745855 C.3        1 MOL1         0.1018
      76    H36     20.749120   24.747061   20.423194 H          1 MOL1         0.0783
      77    C23     21.473651   22.884128   19.547324 C.3        1 MOL1         0.1043
      78    H37     21.294672   21.823698   19.759368 H          1 MOL1         0.0783
      79    O19     22.898526   23.083398   19.375450 O.3        1 MOL1        -0.3740
      80    C24     20.760080   23.183222   18.206423 C.3        1 MOL1         0.0138
      81    H38     19.729496   22.808176   18.268321 H          1 MOL1         0.0794
      82    H39     21.263287   22.615191   17.412832 H          1 MOL1         0.0794
      83    O20     20.752564   24.579027   17.880426 O.3        1 MOL1        -0.5486
      84    H40     20.105864   25.019745   18.471785 H          1 MOL1         0.3769
      85    C25     24.524694   17.836054   22.560751 C.3        1 MOL1         0.2972
      86    H41     25.030360   16.987760   23.038196 H          1 MOL1         0.0751
      87    O21     23.298660   17.428479   21.926261 O.3        1 MOL1        -0.3740
      88    C26     24.216091   18.925444   23.617310 C.3        1 MOL1         0.1003
      89    H42     25.180110   19.269561   24.013328 H          1 MOL1         0.0783
      90    O22     23.434491   18.398501   24.700073 O.3        1 MOL1        -0.5519
      91    H43     22.543936   18.143793   24.327281 H          1 MOL1         0.3769
      92    C27     23.508714   20.139164   22.973320 C.3        1 MOL1         0.1053
      93    H44     22.511083   19.818428   22.648674 H          1 MOL1         0.0783
      94    O23     23.384387   21.178568   23.949201 O.3        1 MOL1        -0.5519
      95    H45     22.898038   20.764397   24.697421 H          1 MOL1         0.3769
      96    C28     24.280508   20.663297   21.733179 C.3        1 MOL1         0.1018
      97    H46     25.128528   21.270025   22.074011 H          1 MOL1         0.0783
      98    C29     24.779796   19.524524   20.798939 C.3        1 MOL1         0.1043
      99    H47     23.904214   19.150136   20.258724 H          1 MOL1         0.0783
     100    O24     25.368568   18.432672   21.552023 O.3        1 MOL1        -0.3740
     101    C30     25.802844   19.994166   19.736047 C.3        1 MOL1         0.0138
     102    H48     25.305873   20.694937   19.051682 H          1 MOL1         0.0794
     103    H49     26.107004   19.124522   19.138523 H          1 MOL1         0.0794
     104    O25     26.958432   20.610658   20.319506 O.3        1 MOL1        -0.5486
     105    H50     26.683499   21.451093   20.740366 H          1 MOL1         0.3769
     106    C31     21.283063   14.009346   20.735286 C.3        1 MOL1         0.2972
     107    H51     20.952142   13.055056   20.305543 H          1 MOL1         0.0751
     108    O26     20.175685   14.799386   21.204196 O.3        1 MOL1        -0.3740
     109    C32     22.246257   13.785615   21.926832 C.3        1 MOL1         0.1003
     110    H52     23.121195   13.248939   21.537575 H          1 MOL1         0.0783
     111    O27     21.628725   12.990133   22.951504 O.3        1 MOL1        -0.5519
     112    H53     20.765184   13.420868   23.177511 H          1 MOL1         0.3769
     113    C33     22.739373   15.136209   22.509008 C.3        1 MOL1         0.1053
     114    H54     21.892243   15.630413   23.006281 H          1 MOL1         0.0783
     115    O28     23.774169   14.859581   23.459086 O.3        1 MOL1        -0.5519
     116    H55     23.396045   14.181839   24.060978 H          1 MOL1         0.3769
     117    C34     23.267286   16.088084   21.397646 C.3        1 MOL1         0.1018
     118    H56     24.266716   15.751504   21.094325 H          1 MOL1         0.0783
     119    C35     22.338836   16.129793   20.149930 C.3        1 MOL1         0.1043
     120    H57     21.422322   16.664977   20.425087 H          1 MOL1         0.0783
     121    O29     21.997659   14.781705   19.747905 O.3        1 MOL1        -0.3740
     122    C36     22.932097   16.873106   18.925611 C.3        1 MOL1         0.0138
     123    H58     22.681849   17.937584   19.012641 H          1 MOL1         0.0794
     124    H59     22.430858   16.509307   18.018837 H          1 MOL1         0.0794
     125    O30     24.351642   16.713363   18.800606 O.3        1 MOL1        -0.5486
     126    H60     24.763673   17.105112   19.602424 H          1 MOL1         0.3769
     127    C1      20.044427   18.740481   23.329915 C.2        1 MOL1         0.6021
     128    O1      19.677507   19.751761   23.901761 O.co2      1 MOL1        -0.6904
     129    O2      20.832354   17.945002   23.801769 O.co2      1 MOL1        -0.6904
     130    C2      19.545116   18.499472   21.906965 C.3        1 MOL1        -0.2102
     131    H1      18.481358   18.755226   21.873628 H          1 MOL1         0.0687
     132    H2      19.620565   17.428793   21.692803 H          1 MOL1         0.0687
     133    C3      20.329780   19.310593   20.847164 C.3        1 MOL1        -0.1974
     134    H3      20.338693   20.368298   21.136950 H          1 MOL1         0.0689
     135    H4      21.375885   18.983834   20.840073 H          1 MOL1         0.0689
     136    C4      19.731359   19.161833   19.434501 C.3        1 MOL1        -0.2987
     137    H5      20.357562   19.676411   18.694838 H          1 MOL1         0.0700
     138    H6      19.659797   18.105277   19.146073 H          1 MOL1         0.0700
     139    H7      18.728174   19.603662   19.390466 H          1 MOL1         0.0700
@<TRIPOS>BOND
    1     1     2    1
    2     1     3    1
    3     1     4    1
    4     4     5    1
    5     4     6    1
    6     6     7    1
    7     4     8    1
    8     8     9    1
    9     8    10    1
   10    10    11    1
   11     8    12    1
   12    12    13    1
   13    12    14    1
   14    14    15    1
   15     1    16    1
   16    14    16    1
   17    14    17    1
   18    17    18    1
   19    17    19    1
   20    17    20    1
   21    20    21    1
   22    22    23    1
   23    22    24    1
   24    22    25    1
   25    25    26    1
   26    25    27    1
   27    27    28    1
   28    25    29    1
   29    29    30    1
   30    29    31    1
   31    31    32    1
   32     3    33    1
   33    29    33    1
   34    33    34    1
   35    33    35    1
   36    35    36    1
   37    22    37    1
   38    35    37    1
   39    35    38    1
   40    38    39    1
   41    38    40    1
   42    38    41    1
   43    41    42    1
   44    43    44    1
   45    43    45    1
   46    43    46    1
   47    46    47    1
   48    46    48    1
   49    48    49    1
   50    46    50    1
   51    50    51    1
   52    50    52    1
   53    52    53    1
   54    24    54    1
   55    50    54    1
   56    54    55    1
   57    54    56    1
   58    56    57    1
   59    43    58    1
   60    56    58    1
   61    56    59    1
   62    59    60    1
   63    59    61    1
   64    59    62    1
   65    62    63    1
   66    64    65    1
   67    64    66    1
   68    64    67    1
   69    67    68    1
   70    67    69    1
   71    69    70    1
   72    67    71    1
   73    71    72    1
   74    71    73    1
   75    73    74    1
   76    45    75    1
   77    71    75    1
   78    75    76    1
   79    75    77    1
   80    77    78    1
   81    64    79    1
   82    77    79    1
   83    77    80    1
   84    80    81    1
   85    80    82    1
   86    80    83    1
   87    83    84    1
   88    85    86    1
   89    85    87    1
   90    85    88    1
   91    88    89    1
   92    88    90    1
   93    90    91    1
   94    88    92    1
   95    92    93    1
   96    92    94    1
   97    94    95    1
   98    66    96    1
   99    92    96    1
  100    96    97    1
  101    96    98    1
  102    98    99    1
  103    85   100    1
  104    98   100    1
  105    98   101    1
  106   101   102    1
  107   101   103    1
  108   101   104    1
  109   104   105    1
  110   106   107    1
  111    12   108    1
  112   106   108    1
  113   106   109    1
  114   109   110    1
  115   109   111    1
  116   111   112    1
  117   109   113    1
  118   113   114    1
  119   113   115    1
  120   115   116    1
  121    87   117    1
  122   113   117    1
  123   117   118    1
  124   117   119    1
  125   119   120    1
  126   106   121    1
  127   119   121    1
  128   119   122    1
  129   122   123    1
  130   122   124    1
  131   122   125    1
  132   125   126    1
  133   127   128    1
  134   127   129    2
  135   127   130    1
  136   130   131    1
  137   130   132    1
  138   130   133    1
  139   133   134    1
  140   133   135    1
  141   133   136    1
  142   136   137    1
  143   136   138    1
  144   136   139    1
@<TRIPOS>SUBSTRUCTURE
       1 MOL1            1 RESIDUE      1      MOL     
       2 MOL1          139 RESIDUE      1      MOL     
@<SCITEGIC>MOL_PROPERTY
feprocess Rank
SciTegic.value.IntegerValue
6

@<SCITEGIC>MOL_PROPERTY
Conf_Id
SciTegic.value.IntegerValue
650

@<SCITEGIC>MOL_PROPERTY
Probability
SciTegic.value.DoubleValue
2.54

@<SCITEGIC>MOL_PROPERTY
G
SciTegic.value.DoubleValue
484.134

@<SCITEGIC>MOL_PROPERTY
E
SciTegic.value.DoubleValue
306.644

@<SCITEGIC>MOL_PROPERTY
-TS
SciTegic.value.DoubleValue
177.489

@<SCITEGIC>MOL_PROPERTY
U+W
SciTegic.value.DoubleValue
184.133

@<SCITEGIC>MOL_PROPERTY
U
SciTegic.value.DoubleValue
255.252

@<SCITEGIC>MOL_PROPERTY
W
SciTegic.value.DoubleValue
-71.119

@<SCITEGIC>MOL_PROPERTY
W(PB)
SciTegic.value.DoubleValue
-77.027

@<SCITEGIC>MOL_PROPERTY
W(SA)
SciTegic.value.DoubleValue
5.908

@<SCITEGIC>MOL_PROPERTY
Valence
SciTegic.value.DoubleValue
150.460

@<SCITEGIC>MOL_PROPERTY
Coulomb
SciTegic.value.DoubleValue
127.521

@<SCITEGIC>MOL_PROPERTY
VdW
SciTegic.value.DoubleValue
-22.729

@<SCITEGIC>MOL_PROPERTY
VdW6
SciTegic.value.DoubleValue
-179.451

@<SCITEGIC>MOL_PROPERTY
VdW12
SciTegic.value.DoubleValue
156.722

@<SCITEGIC>MOL_PROPERTY
Bond
SciTegic.value.DoubleValue
5.144

@<SCITEGIC>MOL_PROPERTY
Angle
SciTegic.value.DoubleValue
15.674

@<SCITEGIC>MOL_PROPERTY
Pdih
SciTegic.value.DoubleValue
129.634

@<SCITEGIC>MOL_PROPERTY
Idih
SciTegic.value.DoubleValue
0.008

@<SCITEGIC>MOL_PROPERTY
Tether
SciTegic.value.DoubleValue
0.000

@<TRIPOS>MOLECULE
CD_guest-6_fast_vm2_rndm.mol2 : feprocess host+ligand conformer 7
         139         144           2
SMALL
USER_CHARGES
 
@<TRIPOS>ATOM
       1    C1      16.417853   15.437803   22.103609 C.3        1 MOL1         0.2972
       2    H1      15.386213   15.346799   22.466038 H          1 MOL1         0.0751
       3    O1      16.682190   16.757715   21.589772 O.3        1 MOL1        -0.3740
       4    C2      17.410982   15.138471   23.254312 C.3        1 MOL1         0.1003
       5    H2      17.268403   14.088938   23.541511 H          1 MOL1         0.0783
       6    O2      17.133275   15.967404   24.393843 O.3        1 MOL1        -0.5519
       7    H3      17.882981   16.615146   24.480542 H          1 MOL1         0.3769
       8    C3      18.867342   15.300438   22.753234 C.3        1 MOL1         0.1053
       9    H4      19.012472   16.345882   22.452472 H          1 MOL1         0.0783
      10    O3      19.796477   14.971896   23.793560 O.3        1 MOL1        -0.5519
      11    H5      19.949448   15.827548   24.279876 H          1 MOL1         0.3769
      12    C4      19.119492   14.416524   21.505994 C.3        1 MOL1         0.1018
      13    H6      19.204752   13.368231   21.820559 H          1 MOL1         0.0783
      14    C5      17.997126   14.565991   20.438735 C.3        1 MOL1         0.1043
      15    H7      18.121090   15.552261   19.978270 H          1 MOL1         0.0783
      16    O4      16.677410   14.491840   21.042126 O.3        1 MOL1        -0.3740
      17    C6      18.078316   13.518356   19.303015 C.3        1 MOL1         0.0138
      18    H8      18.956796   13.743929   18.683421 H          1 MOL1         0.0794
      19    H9      17.192483   13.624618   18.662525 H          1 MOL1         0.0794
      20    O5      18.170651   12.180835   19.808681 O.3        1 MOL1        -0.5486
      21    H10     18.137658   11.568813   19.041270 H          1 MOL1         0.3769
      22    C7      14.842275   20.287204   20.546412 C.3        1 MOL1         0.2972
      23    H11     14.232670   21.106071   20.143007 H          1 MOL1         0.0751
      24    O6      16.062765   20.768043   21.139660 O.3        1 MOL1        -0.3740
      25    C8      14.071803   19.493116   21.628812 C.3        1 MOL1         0.1003
      26    H12     13.182959   19.066329   21.146199 H          1 MOL1         0.0783
      27    O7      13.656580   20.351778   22.703751 O.3        1 MOL1        -0.5519
      28    H13     14.463152   20.825366   23.030839 H          1 MOL1         0.3769
      29    C9      14.927640   18.320622   22.174138 C.3        1 MOL1         0.1053
      30    H14     15.744504   18.742542   22.776845 H          1 MOL1         0.0783
      31    O8      14.091014   17.498008   22.993882 O.3        1 MOL1        -0.5519
      32    H15     13.658421   18.114579   23.624173 H          1 MOL1         0.3769
      33    C10     15.562208   17.471845   21.035299 C.3        1 MOL1         0.1018
      34    H16     14.799774   16.788353   20.640845 H          1 MOL1         0.0783
      35    C11     16.139166   18.332084   19.873774 C.3        1 MOL1         0.1043
      36    H17     17.058864   18.814057   20.227875 H          1 MOL1         0.0783
      37    O9      15.186656   19.355446   19.498741 O.3        1 MOL1        -0.3740
      38    C12     16.534938   17.526591   18.608756 C.3        1 MOL1         0.0138
      39    H18     17.578158   17.204987   18.717937 H          1 MOL1         0.0794
      40    H19     16.504500   18.199541   17.741500 H          1 MOL1         0.0794
      41    O10     15.699098   16.385439   18.374904 O.3        1 MOL1        -0.5486
      42    H20     15.832960   15.764722   19.125680 H          1 MOL1         0.3769
      43    C13     18.378885   24.057673   21.865211 C.3        1 MOL1         0.2972
      44    H21     18.821083   25.045352   22.049548 H          1 MOL1         0.0751
      45    O11     19.391420   23.042091   21.725626 O.3        1 MOL1        -0.3740
      46    C14     17.461599   23.667896   23.047853 C.3        1 MOL1         0.1003
      47    H22     16.657056   24.412601   23.104684 H          1 MOL1         0.0783
      48    O12     18.206297   23.674290   24.276017 O.3        1 MOL1        -0.5519
      49    H23     19.151557   23.522388   24.032700 H          1 MOL1         0.3769
      50    C15     16.818017   22.282407   22.811764 C.3        1 MOL1         0.1053
      51    H24     17.613182   21.529668   22.875915 H          1 MOL1         0.0783
      52    O13     15.841118   22.029035   23.827006 O.3        1 MOL1        -0.5519
      53    H25     16.291147   22.252099   24.672176 H          1 MOL1         0.3769
      54    C16     16.158963   22.176511   21.412835 C.3        1 MOL1         0.1018
      55    H26     15.174345   22.661350   21.448797 H          1 MOL1         0.0783
      56    C17     17.024998   22.785528   20.273404 C.3        1 MOL1         0.1043
      57    H27     17.845497   22.083571   20.082071 H          1 MOL1         0.0783
      58    O14     17.582075   24.067275   20.663526 O.3        1 MOL1        -0.3740
      59    C18     16.261568   22.967676   18.939855 C.3        1 MOL1         0.0138
      60    H28     16.071235   21.975778   18.508136 H          1 MOL1         0.0794
      61    H29     16.907877   23.509722   18.236383 H          1 MOL1         0.0794
      62    O15     15.023320   23.666092   19.118599 O.3        1 MOL1        -0.5486
      63    H30     14.633733   23.814689   18.229373 H          1 MOL1         0.3769
      64    C19     23.468658   22.623718   20.894463 C.3        1 MOL1         0.2972
      65    H31     24.504070   22.791954   20.571697 H          1 MOL1         0.0751
      66    O16     23.232271   21.233807   21.193825 O.3        1 MOL1        -0.3740
      67    C20     23.114002   23.500299   22.129470 C.3        1 MOL1         0.1003
      68    H32     23.232144   24.547351   21.821601 H          1 MOL1         0.0783
      69    O17     23.986046   23.248421   23.241182 O.3        1 MOL1        -0.5519
      70    H33     23.852612   22.302468   23.504026 H          1 MOL1         0.3769
      71    C21     21.635277   23.294529   22.541371 C.3        1 MOL1         0.1053
      72    H34     21.517056   22.260553   22.891415 H          1 MOL1         0.0783
      73    O18     21.293461   24.206071   23.591422 O.3        1 MOL1        -0.5519
      74    H35     22.047267   24.167746   24.221128 H          1 MOL1         0.3769
      75    C22     20.694392   23.508301   21.330744 C.3        1 MOL1         0.1018
      76    H36     20.689471   24.576580   21.077075 H          1 MOL1         0.0783
      77    C23     21.155653   22.695606   20.089041 C.3        1 MOL1         0.1043
      78    H37     21.036615   21.627290   20.312106 H          1 MOL1         0.0783
      79    O19     22.554229   22.987581   19.835774 O.3        1 MOL1        -0.3740
      80    C24     20.356597   22.975879   18.789354 C.3        1 MOL1         0.0138
      81    H38     19.520112   22.268964   18.735023 H          1 MOL1         0.0794
      82    H39     21.004226   22.759315   17.929331 H          1 MOL1         0.0794
      83    O20     19.861254   24.317909   18.703144 O.3        1 MOL1        -0.5486
      84    H40     19.111676   24.392432   19.339274 H          1 MOL1         0.3769
      85    C25     24.927532   17.582082   22.006171 C.3        1 MOL1         0.2972
      86    H41     25.544498   16.713534   22.269756 H          1 MOL1         0.0751
      87    O21     23.669752   17.186963   21.422631 O.3        1 MOL1        -0.3740
      88    C26     24.671288   18.455612   23.259737 C.3        1 MOL1         0.1003
      89    H42     25.644401   18.849456   23.580007 H          1 MOL1         0.0783
      90    O22     24.106698   17.696662   24.338954 O.3        1 MOL1        -0.5519
      91    H43     23.143322   17.549055   24.126566 H          1 MOL1         0.3769
      92    C27     23.767705   19.654670   22.901425 C.3        1 MOL1         0.1053
      93    H44     22.789439   19.257267   22.603959 H          1 MOL1         0.0783
      94    O23     23.624238   20.500117   24.048260 O.3        1 MOL1        -0.5519
      95    H45     23.329253   19.894542   24.765072 H          1 MOL1         0.3769
      96    C28     24.335224   20.459142   21.705509 C.3        1 MOL1         0.1018
      97    H46     25.156880   21.093110   22.063615 H          1 MOL1         0.0783
      98    C29     24.828378   19.547231   20.542325 C.3        1 MOL1         0.1043
      99    H47     23.940292   19.162577   20.024840 H          1 MOL1         0.0783
     100    O24     25.602305   18.424050   21.045592 O.3        1 MOL1        -0.3740
     101    C30     25.677059   20.295756   19.487165 C.3        1 MOL1         0.0138
     102    H48     25.016278   20.966069   18.921056 H          1 MOL1         0.0794
     103    H49     26.080978   19.561004   18.777812 H          1 MOL1         0.0794
     104    O25     26.739909   21.050263   20.082786 O.3        1 MOL1        -0.5486
     105    H50     27.280962   21.428544   19.355536 H          1 MOL1         0.3769
     106    C31     21.331431   13.938357   20.516515 C.3        1 MOL1         0.2972
     107    H51     20.870094   13.003703   20.173021 H          1 MOL1         0.0751
     108    O26     20.332237   14.906310   20.898793 O.3        1 MOL1        -0.3740
     109    C32     22.310803   13.680027   21.691956 C.3        1 MOL1         0.1003
     110    H52     23.102344   13.026230   21.303254 H          1 MOL1         0.0783
     111    O27     21.669592   13.017170   22.792189 O.3        1 MOL1        -0.5519
     112    H53     21.013405   13.659443   23.164923 H          1 MOL1         0.3769
     113    C33     22.980359   14.994701   22.164414 C.3        1 MOL1         0.1053
     114    H54     22.219301   15.610053   22.665238 H          1 MOL1         0.0783
     115    O28     24.029226   14.663210   23.080604 O.3        1 MOL1        -0.5519
     116    H55     23.602712   14.128733   23.784401 H          1 MOL1         0.3769
     117    C34     23.560797   15.819702   20.982816 C.3        1 MOL1         0.1018
     118    H56     24.538200   15.405292   20.706385 H          1 MOL1         0.0783
     119    C35     22.642695   15.842963   19.727441 C.3        1 MOL1         0.1043
     120    H57     21.807396   16.523283   19.929017 H          1 MOL1         0.0783
     121    O29     22.116026   14.520563   19.454497 O.3        1 MOL1        -0.3740
     122    C36     23.340408   16.376307   18.451466 C.3        1 MOL1         0.0138
     123    H58     23.462622   17.462753   18.548736 H          1 MOL1         0.0794
     124    H59     22.675017   16.203282   17.595300 H          1 MOL1         0.0794
     125    O30     24.614985   15.766098   18.213258 O.3        1 MOL1        -0.5486
     126    H60     25.249514   16.147732   18.857424 H          1 MOL1         0.3769
     127    C1      20.233965   18.214487   24.136296 C.2        1 MOL1         0.6021
     128    O1      19.319415   17.665307   24.719622 O.co2      1 MOL1        -0.6904
     129    O2      21.347716   17.733461   24.061966 O.co2      1 MOL1        -0.6904
     130    C2      19.942732   19.528912   23.412215 C.3        1 MOL1        -0.2102
     131    H1      20.868759   20.106228   23.345786 H          1 MOL1         0.0687
     132    H2      19.260269   20.106313   24.046440 H          1 MOL1         0.0687
     133    C3      19.314204   19.355748   22.005244 C.3        1 MOL1        -0.1974
     134    H3      18.394242   18.765923   22.101050 H          1 MOL1         0.0689
     135    H4      19.024005   20.336124   21.609994 H          1 MOL1         0.0689
     136    C4      20.266554   18.680903   20.998582 C.3        1 MOL1        -0.2987
     137    H5      20.579316   17.696622   21.366773 H          1 MOL1         0.0700
     138    H6      19.774647   18.542959   20.027965 H          1 MOL1         0.0700
     139    H7      21.169030   19.284714   20.844685 H          1 MOL1         0.0700
@<TRIPOS>BOND
    1     1     2    1
    2     1     3    1
    3     1     4    1
    4     4     5    1
    5     4     6    1
    6     6     7    1
    7     4     8    1
    8     8     9    1
    9     8    10    1
   10    10    11    1
   11     8    12    1
   12    12    13    1
   13    12    14    1
   14    14    15    1
   15     1    16    1
   16    14    16    1
   17    14    17    1
   18    17    18    1
   19    17    19    1
   20    17    20    1
   21    20    21    1
   22    22    23    1
   23    22    24    1
   24    22    25    1
   25    25    26    1
   26    25    27    1
   27    27    28    1
   28    25    29    1
   29    29    30    1
   30    29    31    1
   31    31    32    1
   32     3    33    1
   33    29    33    1
   34    33    34    1
   35    33    35    1
   36    35    36    1
   37    22    37    1
   38    35    37    1
   39    35    38    1
   40    38    39    1
   41    38    40    1
   42    38    41    1
   43    41    42    1
   44    43    44    1
   45    43    45    1
   46    43    46    1
   47    46    47    1
   48    46    48    1
   49    48    49    1
   50    46    50    1
   51    50    51    1
   52    50    52    1
   53    52    53    1
   54    24    54    1
   55    50    54    1
   56    54    55    1
   57    54    56    1
   58    56    57    1
   59    43    58    1
   60    56    58    1
   61    56    59    1
   62    59    60    1
   63    59    61    1
   64    59    62    1
   65    62    63    1
   66    64    65    1
   67    64    66    1
   68    64    67    1
   69    67    68    1
   70    67    69    1
   71    69    70    1
   72    67    71    1
   73    71    72    1
   74    71    73    1
   75    73    74    1
   76    45    75    1
   77    71    75    1
   78    75    76    1
   79    75    77    1
   80    77    78    1
   81    64    79    1
   82    77    79    1
   83    77    80    1
   84    80    81    1
   85    80    82    1
   86    80    83    1
   87    83    84    1
   88    85    86    1
   89    85    87    1
   90    85    88    1
   91    88    89    1
   92    88    90    1
   93    90    91    1
   94    88    92    1
   95    92    93    1
   96    92    94    1
   97    94    95    1
   98    66    96    1
   99    92    96    1
  100    96    97    1
  101    96    98    1
  102    98    99    1
  103    85   100    1
  104    98   100    1
  105    98   101    1
  106   101   102    1
  107   101   103    1
  108   101   104    1
  109   104   105    1
  110   106   107    1
  111    12   108    1
  112   106   108    1
  113   106   109    1
  114   109   110    1
  115   109   111    1
  116   111   112    1
  117   109   113    1
  118   113   114    1
  119   113   115    1
  120   115   116    1
  121    87   117    1
  122   113   117    1
  123   117   118    1
  124   117   119    1
  125   119   120    1
  126   106   121    1
  127   119   121    1
  128   119   122    1
  129   122   123    1
  130   122   124    1
  131   122   125    1
  132   125   126    1
  133   127   128    1
  134   127   129    2
  135   127   130    1
  136   130   131    1
  137   130   132    1
  138   130   133    1
  139   133   134    1
  140   133   135    1
  141   133   136    1
  142   136   137    1
  143   136   138    1
  144   136   139    1
@<TRIPOS>SUBSTRUCTURE
       1 MOL1            1 RESIDUE      1      MOL     
       2 MOL1          139 RESIDUE      1      MOL     
@<SCITEGIC>MOL_PROPERTY
feprocess Rank
SciTegic.value.IntegerValue
7

@<SCITEGIC>MOL_PROPERTY
Conf_Id
SciTegic.value.IntegerValue
111

@<SCITEGIC>MOL_PROPERTY
Probability
SciTegic.value.DoubleValue
2.40

@<SCITEGIC>MOL_PROPERTY
G
SciTegic.value.DoubleValue
484.168

@<SCITEGIC>MOL_PROPERTY
E
SciTegic.value.DoubleValue
307.194

@<SCITEGIC>MOL_PROPERTY
-TS
SciTegic.value.DoubleValue
176.974

@<SCITEGIC>MOL_PROPERTY
U+W
SciTegic.value.DoubleValue
184.683

@<SCITEGIC>MOL_PROPERTY
U
SciTegic.value.DoubleValue
256.986

@<SCITEGIC>MOL_PROPERTY
W
SciTegic.value.DoubleValue
-72.303

@<SCITEGIC>MOL_PROPERTY
W(PB)
SciTegic.value.DoubleValue
-78.299

@<SCITEGIC>MOL_PROPERTY
W(SA)
SciTegic.value.DoubleValue
5.996

@<SCITEGIC>MOL_PROPERTY
Valence
SciTegic.value.DoubleValue
150.743

@<SCITEGIC>MOL_PROPERTY
Coulomb
SciTegic.value.DoubleValue
127.820

@<SCITEGIC>MOL_PROPERTY
VdW
SciTegic.value.DoubleValue
-21.578

@<SCITEGIC>MOL_PROPERTY
VdW6
SciTegic.value.DoubleValue
-177.691

@<SCITEGIC>MOL_PROPERTY
VdW12
SciTegic.value.DoubleValue
156.113

@<SCITEGIC>MOL_PROPERTY
Bond
SciTegic.value.DoubleValue
5.136

@<SCITEGIC>MOL_PROPERTY
Angle
SciTegic.value.DoubleValue
15.131

@<SCITEGIC>MOL_PROPERTY
Pdih
SciTegic.value.DoubleValue
130.470

@<SCITEGIC>MOL_PROPERTY
Idih
SciTegic.value.DoubleValue
0.007

@<SCITEGIC>MOL_PROPERTY
Tether
SciTegic.value.DoubleValue
0.000

@<TRIPOS>MOLECULE
CD_guest-6_fast_vm2_rndm.mol2 : feprocess host+ligand conformer 8
         139         144           2
SMALL
USER_CHARGES
 
@<TRIPOS>ATOM
       1    C1      16.138244   15.258126   21.664689 C.3        1 MOL1         0.2972
       2    H1      15.068079   15.115029   21.862052 H          1 MOL1         0.0751
       3    O1      16.404164   16.548819   21.078206 O.3        1 MOL1        -0.3740
       4    C2      16.957031   15.101393   22.973220 C.3        1 MOL1         0.1003
       5    H2      16.804436   14.073332   23.326822 H          1 MOL1         0.0783
       6    O2      16.524524   16.014146   23.994618 O.3        1 MOL1        -0.5519
       7    H3      15.738198   16.497809   23.642907 H          1 MOL1         0.3769
       8    C3      18.465785   15.291387   22.701648 C.3        1 MOL1         0.1053
       9    H4      18.621722   16.340673   22.423158 H          1 MOL1         0.0783
      10    O3      19.195748   14.996177   23.896803 O.3        1 MOL1        -0.5519
      11    H5      18.719694   15.488568   24.602618 H          1 MOL1         0.3769
      12    C4      18.962548   14.397078   21.536458 C.3        1 MOL1         0.1018
      13    H6      19.087246   13.372271   21.910235 H          1 MOL1         0.0783
      14    C5      17.997967   14.405632   20.314051 C.3        1 MOL1         0.1043
      15    H7      18.109720   15.371277   19.803391 H          1 MOL1         0.0783
      16    O4      16.619513   14.255713   20.744965 O.3        1 MOL1        -0.3740
      17    C6      18.306976   13.304058   19.271996 C.3        1 MOL1         0.0138
      18    H8      19.240485   13.565365   18.755549 H          1 MOL1         0.0794
      19    H9      17.508010   13.301843   18.518467 H          1 MOL1         0.0794
      20    O5      18.429385   12.008312   19.872089 O.3        1 MOL1        -0.5486
      21    H10     18.541575   11.353993   19.148227 H          1 MOL1         0.3769
      22    C7      14.791544   20.278061   20.502409 C.3        1 MOL1         0.2972
      23    H11     14.225099   21.182233   20.244940 H          1 MOL1         0.0751
      24    O6      16.152642   20.593335   20.874670 O.3        1 MOL1        -0.3740
      25    C8      14.100528   19.485782   21.641769 C.3        1 MOL1         0.1003
      26    H12     13.137596   19.134705   21.248116 H          1 MOL1         0.0783
      27    O7      13.852118   20.299180   22.796998 O.3        1 MOL1        -0.5519
      28    H13     14.736710   20.570070   23.150778 H          1 MOL1         0.3769
      29    C9      14.940820   18.240671   22.014887 C.3        1 MOL1         0.1053
      30    H14     15.889098   18.585288   22.451598 H          1 MOL1         0.0783
      31    O8      14.214721   17.465453   22.974632 O.3        1 MOL1        -0.5519
      32    H15     13.811725   18.126416   23.582756 H          1 MOL1         0.3769
      33    C10     15.267054   17.377678   20.764128 C.3        1 MOL1         0.1018
      34    H16     14.387641   16.773074   20.509765 H          1 MOL1         0.0783
      35    C11     15.680563   18.219727   19.520039 C.3        1 MOL1         0.1043
      36    H17     16.711167   18.560273   19.661106 H          1 MOL1         0.0783
      37    O9      14.831374   19.384511   19.369900 O.3        1 MOL1        -0.3740
      38    C12     15.666248   17.415607   18.196913 C.3        1 MOL1         0.0138
      39    H18     16.488059   16.687215   18.222054 H          1 MOL1         0.0794
      40    H19     15.872319   18.107442   17.369516 H          1 MOL1         0.0794
      41    O10     14.423516   16.738217   17.971093 O.3        1 MOL1        -0.5486
      42    H20     14.404351   15.950433   18.555487 H          1 MOL1         0.3769
      43    C13     18.614150   23.682681   22.203662 C.3        1 MOL1         0.2972
      44    H21     19.022678   24.622557   22.596803 H          1 MOL1         0.0751
      45    O11     19.659161   22.817537   21.728131 O.3        1 MOL1        -0.3740
      46    C14     17.807493   22.955654   23.308764 C.3        1 MOL1         0.1003
      47    H22     16.961744   23.607748   23.562416 H          1 MOL1         0.0783
      48    O12     18.588075   22.748395   24.495797 O.3        1 MOL1        -0.5519
      49    H23     19.341696   22.133296   24.271402 H          1 MOL1         0.3769
      50    C15     17.227044   21.623696   22.782114 C.3        1 MOL1         0.1053
      51    H24     18.060691   20.954617   22.530132 H          1 MOL1         0.0783
      52    O13     16.422831   21.035900   23.809309 O.3        1 MOL1        -0.5519
      53    H25     16.980171   21.084940   24.618557 H          1 MOL1         0.3769
      54    C16     16.385546   21.872152   21.502864 C.3        1 MOL1         0.1018
      55    H26     15.446825   22.365655   21.787697 H          1 MOL1         0.0783
      56    C17     17.148523   22.747733   20.468017 C.3        1 MOL1         0.1043
      57    H27     17.958963   22.132169   20.060684 H          1 MOL1         0.0783
      58    O14     17.718896   23.929492   21.095458 O.3        1 MOL1        -0.3740
      59    C18     16.269451   23.200798   19.277821 C.3        1 MOL1         0.0138
      60    H28     16.042525   22.322327   18.658547 H          1 MOL1         0.0794
      61    H29     16.848840   23.896610   18.656260 H          1 MOL1         0.0794
      62    O15     15.050500   23.816348   19.712534 O.3        1 MOL1        -0.5486
      63    H30     14.582884   24.147288   18.914865 H          1 MOL1         0.3769
      64    C19     23.648798   22.735265   20.680411 C.3        1 MOL1         0.2972
      65    H31     24.665395   22.899254   20.300748 H          1 MOL1         0.0751
      66    O16     23.442943   21.359517   21.059759 O.3        1 MOL1        -0.3740
      67    C20     23.335994   23.668199   21.880069 C.3        1 MOL1         0.1003
      68    H32     23.395035   24.697511   21.503097 H          1 MOL1         0.0783
      69    O17     24.289346   23.515061   22.942449 O.3        1 MOL1        -0.5519
      70    H33     24.177415   22.597072   23.297415 H          1 MOL1         0.3769
      71    C21     21.893401   23.441840   22.399818 C.3        1 MOL1         0.1053
      72    H34     21.848399   22.452514   22.875847 H          1 MOL1         0.0783
      73    O18     21.586227   24.463682   23.354726 O.3        1 MOL1        -0.5519
      74    H35     22.299637   24.415154   24.026954 H          1 MOL1         0.3769
      75    C22     20.850525   23.470413   21.249050 C.3        1 MOL1         0.1018
      76    H36     20.661260   24.517939   20.982013 H          1 MOL1         0.0783
      77    C23     21.308533   22.694711   19.979922 C.3        1 MOL1         0.1043
      78    H37     21.258571   21.620846   20.197079 H          1 MOL1         0.0783
      79    O19     22.677427   23.047988   19.657064 O.3        1 MOL1        -0.3740
      80    C24     20.420968   22.923309   18.727730 C.3        1 MOL1         0.0138
      81    H38     19.645132   22.147912   18.709521 H          1 MOL1         0.0794
      82    H39     21.035474   22.771083   17.830425 H          1 MOL1         0.0794
      83    O20     19.807550   24.218737   18.688854 O.3        1 MOL1        -0.5486
      84    H40     19.173637   24.265822   19.441306 H          1 MOL1         0.3769
      85    C25     25.015162   17.739862   22.050599 C.3        1 MOL1         0.2972
      86    H41     25.588795   16.848016   22.333496 H          1 MOL1         0.0751
      87    O21     23.699399   17.400504   21.566189 O.3        1 MOL1        -0.3740
      88    C26     24.858103   18.682101   23.266186 C.3        1 MOL1         0.1003
      89    H42     25.858995   19.033128   23.548186 H          1 MOL1         0.0783
      90    O22     24.278973   17.965793   24.370266 O.3        1 MOL1        -0.5519
      91    H43     23.396181   18.385128   24.560928 H          1 MOL1         0.3769
      92    C27     24.008214   19.912718   22.864637 C.3        1 MOL1         0.1053
      93    H44     23.005425   19.552196   22.617675 H          1 MOL1         0.0783
      94    O23     23.911284   20.837506   23.954091 O.3        1 MOL1        -0.5519
      95    H45     23.141781   20.513929   24.494313 H          1 MOL1         0.3769
      96    C28     24.555067   20.615410   21.594749 C.3        1 MOL1         0.1018
      97    H46     25.398152   21.261081   21.872925 H          1 MOL1         0.0783
      98    C29     24.974860   19.616430   20.474753 C.3        1 MOL1         0.1043
      99    H47     24.055966   19.253211   19.997299 H          1 MOL1         0.0783
     100    O24     25.695506   18.477752   21.014250 O.3        1 MOL1        -0.3740
     101    C30     25.834272   20.262336   19.362354 C.3        1 MOL1         0.0138
     102    H48     25.198082   20.945206   18.783277 H          1 MOL1         0.0794
     103    H49     26.172536   19.472830   18.677829 H          1 MOL1         0.0794
     104    O25     26.957175   20.976710   19.893301 O.3        1 MOL1        -0.5486
     105    H50     27.495501   21.292603   19.134881 H          1 MOL1         0.3769
     106    C31     21.302282   14.063772   20.826110 C.3        1 MOL1         0.2972
     107    H51     20.934348   13.077371   20.516267 H          1 MOL1         0.0751
     108    O26     20.211293   14.967741   21.095740 O.3        1 MOL1        -0.3740
     109    C32     22.205284   13.951298   22.087405 C.3        1 MOL1         0.1003
     110    H52     23.047238   13.299911   21.820538 H          1 MOL1         0.0783
     111    O27     21.489505   13.350235   23.178055 O.3        1 MOL1        -0.5519
     112    H53     20.777312   13.985300   23.440511 H          1 MOL1         0.3769
     113    C33     22.791624   15.336305   22.481994 C.3        1 MOL1         0.1053
     114    H54     21.966694   15.973722   22.828990 H          1 MOL1         0.0783
     115    O28     23.765683   15.184313   23.522412 O.3        1 MOL1        -0.5519
     116    H55     23.927656   16.087266   23.889869 H          1 MOL1         0.3769
     117    C34     23.456027   16.018434   21.255768 C.3        1 MOL1         0.1018
     118    H56     24.386569   15.488369   21.013955 H          1 MOL1         0.0783
     119    C35     22.533200   16.007814   20.010360 C.3        1 MOL1         0.1043
     120    H57     21.663948   16.644502   20.220273 H          1 MOL1         0.0783
     121    O29     22.093991   14.649250   19.767457 O.3        1 MOL1        -0.3740
     122    C36     23.193779   16.570238   18.724682 C.3        1 MOL1         0.0138
     123    H58     23.037552   17.656644   18.706422 H          1 MOL1         0.0794
     124    H59     22.670023   16.158727   17.851667 H          1 MOL1         0.0794
     125    O30     24.596928   16.289311   18.639139 O.3        1 MOL1        -0.5486
     126    H60     25.041611   16.823560   19.335341 H          1 MOL1         0.3769
     127    C1      20.830110   19.602893   24.204048 C.2        1 MOL1         0.6021
     128    O1      20.530545   20.775578   24.305559 O.co2      1 MOL1        -0.6904
     129    O2      21.770037   19.104822   24.794581 O.co2      1 MOL1        -0.6904
     130    C2      20.078330   18.753519   23.181839 C.3        1 MOL1        -0.2102
     131    H1      19.013502   18.813249   23.435592 H          1 MOL1         0.0687
     132    H2      20.381116   17.707459   23.303084 H          1 MOL1         0.0687
     133    C3      20.306458   19.209420   21.717534 C.3        1 MOL1        -0.1974
     134    H3      20.201330   20.298126   21.668565 H          1 MOL1         0.0689
     135    H4      21.327811   18.972327   21.397487 H          1 MOL1         0.0689
     136    C4      19.301231   18.571303   20.745065 C.3        1 MOL1        -0.2987
     137    H5      18.280041   18.742817   21.102828 H          1 MOL1         0.0700
     138    H6      19.396098   19.009016   19.743551 H          1 MOL1         0.0700
     139    H7      19.460652   17.491104   20.661354 H          1 MOL1         0.0700
@<TRIPOS>BOND
    1     1     2    1
    2     1     3    1
    3     1     4    1
    4     4     5    1
    5     4     6    1
    6     6     7    1
    7     4     8    1
    8     8     9    1
    9     8    10    1
   10    10    11    1
   11     8    12    1
   12    12    13    1
   13    12    14    1
   14    14    15    1
   15     1    16    1
   16    14    16    1
   17    14    17    1
   18    17    18    1
   19    17    19    1
   20    17    20    1
   21    20    21    1
   22    22    23    1
   23    22    24    1
   24    22    25    1
   25    25    26    1
   26    25    27    1
   27    27    28    1
   28    25    29    1
   29    29    30    1
   30    29    31    1
   31    31    32    1
   32     3    33    1
   33    29    33    1
   34    33    34    1
   35    33    35    1
   36    35    36    1
   37    22    37    1
   38    35    37    1
   39    35    38    1
   40    38    39    1
   41    38    40    1
   42    38    41    1
   43    41    42    1
   44    43    44    1
   45    43    45    1
   46    43    46    1
   47    46    47    1
   48    46    48    1
   49    48    49    1
   50    46    50    1
   51    50    51    1
   52    50    52    1
   53    52    53    1
   54    24    54    1
   55    50    54    1
   56    54    55    1
   57    54    56    1
   58    56    57    1
   59    43    58    1
   60    56    58    1
   61    56    59    1
   62    59    60    1
   63    59    61    1
   64    59    62    1
   65    62    63    1
   66    64    65    1
   67    64    66    1
   68    64    67    1
   69    67    68    1
   70    67    69    1
   71    69    70    1
   72    67    71    1
   73    71    72    1
   74    71    73    1
   75    73    74    1
   76    45    75    1
   77    71    75    1
   78    75    76    1
   79    75    77    1
   80    77    78    1
   81    64    79    1
   82    77    79    1
   83    77    80    1
   84    80    81    1
   85    80    82    1
   86    80    83    1
   87    83    84    1
   88    85    86    1
   89    85    87    1
   90    85    88    1
   91    88    89    1
   92    88    90    1
   93    90    91    1
   94    88    92    1
   95    92    93    1
   96    92    94    1
   97    94    95    1
   98    66    96    1
   99    92    96    1
  100    96    97    1
  101    96    98    1
  102    98    99    1
  103    85   100    1
  104    98   100    1
  105    98   101    1
  106   101   102    1
  107   101   103    1
  108   101   104    1
  109   104   105    1
  110   106   107    1
  111    12   108    1
  112   106   108    1
  113   106   109    1
  114   109   110    1
  115   109   111    1
  116   111   112    1
  117   109   113    1
  118   113   114    1
  119   113   115    1
  120   115   116    1
  121    87   117    1
  122   113   117    1
  123   117   118    1
  124   117   119    1
  125   119   120    1
  126   106   121    1
  127   119   121    1
  128   119   122    1
  129   122   123    1
  130   122   124    1
  131   122   125    1
  132   125   126    1
  133   127   128    1
  134   127   129    2
  135   127   130    1
  136   130   131    1
  137   130   132    1
  138   130   133    1
  139   133   134    1
  140   133   135    1
  141   133   136    1
  142   136   137    1
  143   136   138    1
  144   136   139    1
@<TRIPOS>SUBSTRUCTURE
       1 MOL1            1 RESIDUE      1      MOL     
       2 MOL1          139 RESIDUE      1      MOL     
@<SCITEGIC>MOL_PROPERTY
feprocess Rank
SciTegic.value.IntegerValue
8

@<SCITEGIC>MOL_PROPERTY
Conf_Id
SciTegic.value.IntegerValue
925

@<SCITEGIC>MOL_PROPERTY
Probability
SciTegic.value.DoubleValue
1.90

@<SCITEGIC>MOL_PROPERTY
G
SciTegic.value.DoubleValue
484.305

@<SCITEGIC>MOL_PROPERTY
E
SciTegic.value.DoubleValue
306.026

@<SCITEGIC>MOL_PROPERTY
-TS
SciTegic.value.DoubleValue
178.279

@<SCITEGIC>MOL_PROPERTY
U+W
SciTegic.value.DoubleValue
183.515

@<SCITEGIC>MOL_PROPERTY
U
SciTegic.value.DoubleValue
256.493

@<SCITEGIC>MOL_PROPERTY
W
SciTegic.value.DoubleValue
-72.979

@<SCITEGIC>MOL_PROPERTY
W(PB)
SciTegic.value.DoubleValue
-78.964

@<SCITEGIC>MOL_PROPERTY
W(SA)
SciTegic.value.DoubleValue
5.985

@<SCITEGIC>MOL_PROPERTY
Valence
SciTegic.value.DoubleValue
151.641

@<SCITEGIC>MOL_PROPERTY
Coulomb
SciTegic.value.DoubleValue
124.083

@<SCITEGIC>MOL_PROPERTY
VdW
SciTegic.value.DoubleValue
-19.231

@<SCITEGIC>MOL_PROPERTY
VdW6
SciTegic.value.DoubleValue
-178.295

@<SCITEGIC>MOL_PROPERTY
VdW12
SciTegic.value.DoubleValue
159.064

@<SCITEGIC>MOL_PROPERTY
Bond
SciTegic.value.DoubleValue
5.424

@<SCITEGIC>MOL_PROPERTY
Angle
SciTegic.value.DoubleValue
15.384

@<SCITEGIC>MOL_PROPERTY
Pdih
SciTegic.value.DoubleValue
130.807

@<SCITEGIC>MOL_PROPERTY
Idih
SciTegic.value.DoubleValue
0.026

@<SCITEGIC>MOL_PROPERTY
Tether
SciTegic.value.DoubleValue
0.000

