@<TRIPOS>MOLECULE
CD_guest-6_fast_vm2_rndm.mol2 : feprocess host+ligand conformer 1
         139         144           2
SMALL
USER_CHARGES
 
@<TRIPOS>ATOM
       1    C1      16.269798   15.549710   21.787540 C.3        1 MOL1         0.2972
       2    H1      15.226624   15.458944   22.111791 H          1 MOL1         0.0751
       3    O1      16.475567   16.713959   20.959012 O.3        1 MOL1        -0.3740
       4    C2      17.211304   15.625652   23.019914 C.3        1 MOL1         0.1003
       5    H2      17.069231   14.699954   23.591849 H          1 MOL1         0.0783
       6    O2      16.887727   16.745655   23.862150 O.3        1 MOL1        -0.5519
       7    H3      17.652092   17.380086   23.829569 H          1 MOL1         0.3769
       8    C3      18.689753   15.684747   22.573109 C.3        1 MOL1         0.1053
       9    H4      18.836617   16.634563   22.047561 H          1 MOL1         0.0783
      10    O3      19.548737   15.626327   23.718526 O.3        1 MOL1        -0.5519
      11    H5      19.528368   16.547338   24.090978 H          1 MOL1         0.3769
      12    C4      19.047215   14.558077   21.575718 C.3        1 MOL1         0.1018
      13    H6      19.136458   13.608932   22.118697 H          1 MOL1         0.0783
      14    C5      17.988293   14.420612   20.446924 C.3        1 MOL1         0.1043
      15    H7      18.080111   15.292947   19.786262 H          1 MOL1         0.0783
      16    O4      16.652732   14.390339   21.014048 O.3        1 MOL1        -0.3740
      17    C6      18.180328   13.159886   19.570350 C.3        1 MOL1         0.0138
      18    H8      19.074630   13.302367   18.948816 H          1 MOL1         0.0794
      19    H9      17.321872   13.072148   18.891031 H          1 MOL1         0.0794
      20    O5      18.319477   11.968398   20.354717 O.3        1 MOL1        -0.5486
      21    H10     18.356921   11.206714   19.735798 H          1 MOL1         0.3769
      22    C7      14.761825   20.350836   20.277357 C.3        1 MOL1         0.2972
      23    H11     14.212509   21.253568   19.980959 H          1 MOL1         0.0751
      24    O6      16.073272   20.672118   20.786048 O.3        1 MOL1        -0.3740
      25    C8      13.972045   19.529375   21.325738 C.3        1 MOL1         0.1003
      26    H12     13.051131   19.190708   20.833217 H          1 MOL1         0.0783
      27    O7      13.615719   20.317810   22.471411 O.3        1 MOL1        -0.5519
      28    H13     14.461797   20.548232   22.932008 H          1 MOL1         0.3769
      29    C9      14.766124   18.270981   21.755019 C.3        1 MOL1         0.1053
      30    H14     15.626641   18.598995   22.354631 H          1 MOL1         0.0783
      31    O8      13.895730   17.454653   22.546697 O.3        1 MOL1        -0.5519
      32    H15     13.557428   18.045208   23.254325 H          1 MOL1         0.3769
      33    C10     15.309714   17.457308   20.540905 C.3        1 MOL1         0.1018
      34    H16     14.521009   16.783107   20.185513 H          1 MOL1         0.0783
      35    C11     15.804292   18.342158   19.357469 C.3        1 MOL1         0.1043
      36    H17     16.803555   18.715775   19.609997 H          1 MOL1         0.0783
      37    O9      14.930708   19.478191   19.142058 O.3        1 MOL1        -0.3740
      38    C12     15.956878   17.567469   18.025866 C.3        1 MOL1         0.0138
      39    H18     16.789227   16.858016   18.128240 H          1 MOL1         0.0794
      40    H19     16.236333   18.282060   17.240420 H          1 MOL1         0.0794
      41    O10     14.763271   16.868454   17.649860 O.3        1 MOL1        -0.5486
      42    H20     14.673691   16.091357   18.241641 H          1 MOL1         0.3769
      43    C13     18.500293   23.565211   22.416742 C.3        1 MOL1         0.2972
      44    H21     18.949602   24.446509   22.891059 H          1 MOL1         0.0751
      45    O11     19.506441   22.696406   21.865116 O.3        1 MOL1        -0.3740
      46    C14     17.661960   22.779994   23.456338 C.3        1 MOL1         0.1003
      47    H22     16.860407   23.449639   23.793483 H          1 MOL1         0.0783
      48    O12     18.456967   22.401911   24.590516 O.3        1 MOL1        -0.5519
      49    H23     19.135839   21.743885   24.269406 H          1 MOL1         0.3769
      50    C15     17.003082   21.537397   22.816263 C.3        1 MOL1         0.1053
      51    H24     17.798060   20.829122   22.552499 H          1 MOL1         0.0783
      52    O13     16.118811   20.933169   23.766086 O.3        1 MOL1        -0.5519
      53    H25     16.682168   20.744563   24.550063 H          1 MOL1         0.3769
      54    C16     16.228466   21.901198   21.522997 C.3        1 MOL1         0.1018
      55    H26     15.263530   22.346917   21.797735 H          1 MOL1         0.0783
      56    C17     17.016101   22.866989   20.593512 C.3        1 MOL1         0.1043
      57    H27     17.810739   22.279312   20.122945 H          1 MOL1         0.0783
      58    O14     17.617343   23.955939   21.342069 O.3        1 MOL1        -0.3740
      59    C18     16.158086   23.465728   19.453408 C.3        1 MOL1         0.0138
      60    H28     15.921589   22.665667   18.738916 H          1 MOL1         0.0794
      61    H29     16.757266   24.213729   18.917064 H          1 MOL1         0.0794
      62    O15     14.946796   24.054812   19.941956 O.3        1 MOL1        -0.5486
      63    H30     14.494257   24.480898   19.181503 H          1 MOL1         0.3769
      64    C19     23.528792   22.651536   20.874555 C.3        1 MOL1         0.2972
      65    H31     24.540793   22.838791   20.492912 H          1 MOL1         0.0751
      66    O16     23.376956   21.303266   21.353567 O.3        1 MOL1        -0.3740
      67    C20     23.180241   23.611672   22.038377 C.3        1 MOL1         0.1003
      68    H32     23.226622   24.632984   21.638600 H          1 MOL1         0.0783
      69    O17     24.124678   23.488069   23.113970 O.3        1 MOL1        -0.5519
      70    H33     24.172956   22.527648   23.353852 H          1 MOL1         0.3769
      71    C21     21.736521   23.368620   22.550911 C.3        1 MOL1         0.1053
      72    H34     21.707423   22.394439   23.060269 H          1 MOL1         0.0783
      73    O18     21.407936   24.415009   23.471285 O.3        1 MOL1        -0.5519
      74    H35     22.150180   24.434811   24.114076 H          1 MOL1         0.3769
      75    C22     20.706700   23.333506   21.386091 C.3        1 MOL1         0.1018
      76    H36     20.513814   24.363048   21.058879 H          1 MOL1         0.0783
      77    C23     21.197285   22.492699   20.172570 C.3        1 MOL1         0.1043
      78    H37     21.179676   21.435072   20.461227 H          1 MOL1         0.0783
      79    O19     22.553278   22.869285   19.833724 O.3        1 MOL1        -0.3740
      80    C24     20.319379   22.616810   18.900563 C.3        1 MOL1         0.0138
      81    H38     19.530896   21.855724   18.949111 H          1 MOL1         0.0794
      82    H39     20.934786   22.370781   18.025016 H          1 MOL1         0.0794
      83    O20     19.734442   23.916339   18.741049 O.3        1 MOL1        -0.5486
      84    H40     19.147073   24.071040   19.514252 H          1 MOL1         0.3769
      85    C25     25.194186   17.664125   21.787748 C.3        1 MOL1         0.2972
      86    H41     25.857218   16.795729   21.891459 H          1 MOL1         0.0751
      87    O21     23.812310   17.276420   21.677569 O.3        1 MOL1        -0.3740
      88    C26     25.331392   18.581901   23.024399 C.3        1 MOL1         0.1003
      89    H42     26.366399   18.946538   23.055006 H          1 MOL1         0.0783
      90    O22     25.049110   17.849751   24.227944 O.3        1 MOL1        -0.5519
      91    H43     24.404737   17.137551   23.989008 H          1 MOL1         0.3769
      92    C27     24.395362   19.805761   22.899476 C.3        1 MOL1         0.1053
      93    H44     23.358401   19.450186   22.972572 H          1 MOL1         0.0783
      94    O23     24.665573   20.718106   23.968835 O.3        1 MOL1        -0.5519
      95    H45     24.668801   20.162604   24.780021 H          1 MOL1         0.3769
      96    C28     24.570888   20.525073   21.537301 C.3        1 MOL1         0.1018
      97    H46     25.471103   21.151994   21.585341 H          1 MOL1         0.0783
      98    C29     24.653570   19.548917   20.327343 C.3        1 MOL1         0.1043
      99    H47     23.641806   19.164654   20.141620 H          1 MOL1         0.0783
     100    O24     25.536150   18.433844   20.617706 O.3        1 MOL1        -0.3740
     101    C30     25.129322   20.223560   19.018724 C.3        1 MOL1         0.0138
     102    H48     24.332189   20.888691   18.659832 H          1 MOL1         0.0794
     103    H49     25.273319   19.446561   18.256002 H          1 MOL1         0.0794
     104    O25     26.338458   20.969920   19.204474 O.3        1 MOL1        -0.5486
     105    H50     26.618663   21.306855   18.325590 H          1 MOL1         0.3769
     106    C31     21.359335   14.000370   20.869805 C.3        1 MOL1         0.2972
     107    H51     20.975338   13.010490   20.592370 H          1 MOL1         0.0751
     108    O26     20.288045   14.963449   20.960378 O.3        1 MOL1        -0.3740
     109    C32     22.170614   13.933456   22.199163 C.3        1 MOL1         0.1003
     110    H52     23.004916   13.242183   22.022678 H          1 MOL1         0.0783
     111    O27     21.393845   13.436863   23.298989 O.3        1 MOL1        -0.5519
     112    H53     20.712878   14.129144   23.495642 H          1 MOL1         0.3769
     113    C33     22.774503   15.313337   22.554541 C.3        1 MOL1         0.1053
     114    H54     21.951902   16.001502   22.788113 H          1 MOL1         0.0783
     115    O28     23.638024   15.185232   23.689691 O.3        1 MOL1        -0.5519
     116    H55     23.141024   14.628887   24.329905 H          1 MOL1         0.3769
     117    C34     23.563117   15.897436   21.360604 C.3        1 MOL1         0.1018
     118    H56     24.490257   15.322475   21.237223 H          1 MOL1         0.0783
     119    C35     22.744280   15.843265   20.043482 C.3        1 MOL1         0.1043
     120    H57     21.891308   16.524623   20.147223 H          1 MOL1         0.0783
     121    O29     22.262530   14.487354   19.848911 O.3        1 MOL1        -0.3740
     122    C36     23.516386   16.294574   18.776606 C.3        1 MOL1         0.0138
     123    H58     23.380847   17.377173   18.657178 H          1 MOL1         0.0794
     124    H59     23.057112   15.818827   17.899901 H          1 MOL1         0.0794
     125    O30     24.915939   15.993004   18.825212 O.3        1 MOL1        -0.5486
     126    H60     25.338158   16.692549   19.375558 H          1 MOL1         0.3769
     127    C1      19.912112   19.236367   23.351052 C.2        1 MOL1         0.6021
     128    O1      20.162700   20.327461   23.823730 O.co2      1 MOL1        -0.6904
     129    O2      19.208375   18.405598   23.897806 O.co2      1 MOL1        -0.6904
     130    C2      20.447791   18.916260   21.957122 C.3        1 MOL1        -0.2102
     131    H1      20.767240   17.869262   21.949270 H          1 MOL1         0.0687
     132    H2      21.342967   19.522228   21.785484 H          1 MOL1         0.0687
     133    C3      19.408967   19.172978   20.838132 C.3        1 MOL1        -0.1974
     134    H3      18.475661   18.652411   21.085255 H          1 MOL1         0.0689
     135    H4      19.166752   20.241280   20.805367 H          1 MOL1         0.0689
     136    C4      19.911623   18.713529   19.455337 C.3        1 MOL1        -0.2987
     137    H5      20.034553   17.623673   19.430743 H          1 MOL1         0.0700
     138    H6      19.192203   18.987812   18.673517 H          1 MOL1         0.0700
     139    H7      20.875458   19.178563   19.211680 H          1 MOL1         0.0700
@<TRIPOS>BOND
    1     1     2    1
    2     1     3    1
    3     1     4    1
    4     4     5    1
    5     4     6    1
    6     6     7    1
    7     4     8    1
    8     8     9    1
    9     8    10    1
   10    10    11    1
   11     8    12    1
   12    12    13    1
   13    12    14    1
   14    14    15    1
   15     1    16    1
   16    14    16    1
   17    14    17    1
   18    17    18    1
   19    17    19    1
   20    17    20    1
   21    20    21    1
   22    22    23    1
   23    22    24    1
   24    22    25    1
   25    25    26    1
   26    25    27    1
   27    27    28    1
   28    25    29    1
   29    29    30    1
   30    29    31    1
   31    31    32    1
   32     3    33    1
   33    29    33    1
   34    33    34    1
   35    33    35    1
   36    35    36    1
   37    22    37    1
   38    35    37    1
   39    35    38    1
   40    38    39    1
   41    38    40    1
   42    38    41    1
   43    41    42    1
   44    43    44    1
   45    43    45    1
   46    43    46    1
   47    46    47    1
   48    46    48    1
   49    48    49    1
   50    46    50    1
   51    50    51    1
   52    50    52    1
   53    52    53    1
   54    24    54    1
   55    50    54    1
   56    54    55    1
   57    54    56    1
   58    56    57    1
   59    43    58    1
   60    56    58    1
   61    56    59    1
   62    59    60    1
   63    59    61    1
   64    59    62    1
   65    62    63    1
   66    64    65    1
   67    64    66    1
   68    64    67    1
   69    67    68    1
   70    67    69    1
   71    69    70    1
   72    67    71    1
   73    71    72    1
   74    71    73    1
   75    73    74    1
   76    45    75    1
   77    71    75    1
   78    75    76    1
   79    75    77    1
   80    77    78    1
   81    64    79    1
   82    77    79    1
   83    77    80    1
   84    80    81    1
   85    80    82    1
   86    80    83    1
   87    83    84    1
   88    85    86    1
   89    85    87    1
   90    85    88    1
   91    88    89    1
   92    88    90    1
   93    90    91    1
   94    88    92    1
   95    92    93    1
   96    92    94    1
   97    94    95    1
   98    66    96    1
   99    92    96    1
  100    96    97    1
  101    96    98    1
  102    98    99    1
  103    85   100    1
  104    98   100    1
  105    98   101    1
  106   101   102    1
  107   101   103    1
  108   101   104    1
  109   104   105    1
  110   106   107    1
  111    12   108    1
  112   106   108    1
  113   106   109    1
  114   109   110    1
  115   109   111    1
  116   111   112    1
  117   109   113    1
  118   113   114    1
  119   113   115    1
  120   115   116    1
  121    87   117    1
  122   113   117    1
  123   117   118    1
  124   117   119    1
  125   119   120    1
  126   106   121    1
  127   119   121    1
  128   119   122    1
  129   122   123    1
  130   122   124    1
  131   122   125    1
  132   125   126    1
  133   127   128    1
  134   127   129    2
  135   127   130    1
  136   130   131    1
  137   130   132    1
  138   130   133    1
  139   133   134    1
  140   133   135    1
  141   133   136    1
  142   136   137    1
  143   136   138    1
  144   136   139    1
@<TRIPOS>SUBSTRUCTURE
       1 MOL1            1 RESIDUE      1      MOL     
       2 MOL1          139 RESIDUE      1      MOL     
@<SCITEGIC>MOL_PROPERTY
feprocess Rank
SciTegic.value.IntegerValue
1

@<SCITEGIC>MOL_PROPERTY
Conf_Id
SciTegic.value.IntegerValue
493

@<SCITEGIC>MOL_PROPERTY
Probability
SciTegic.value.DoubleValue
32.69

@<SCITEGIC>MOL_PROPERTY
G
SciTegic.value.DoubleValue
482.611

@<SCITEGIC>MOL_PROPERTY
E
SciTegic.value.DoubleValue
304.919

@<SCITEGIC>MOL_PROPERTY
-TS
SciTegic.value.DoubleValue
177.691

@<SCITEGIC>MOL_PROPERTY
U+W
SciTegic.value.DoubleValue
182.408

@<SCITEGIC>MOL_PROPERTY
U
SciTegic.value.DoubleValue
254.459

@<SCITEGIC>MOL_PROPERTY
W
SciTegic.value.DoubleValue
-72.051

@<SCITEGIC>MOL_PROPERTY
W(PB)
SciTegic.value.DoubleValue
-78.009

@<SCITEGIC>MOL_PROPERTY
W(SA)
SciTegic.value.DoubleValue
5.958

@<SCITEGIC>MOL_PROPERTY
Valence
SciTegic.value.DoubleValue
149.952

@<SCITEGIC>MOL_PROPERTY
Coulomb
SciTegic.value.DoubleValue
126.925

@<SCITEGIC>MOL_PROPERTY
VdW
SciTegic.value.DoubleValue
-22.417

@<SCITEGIC>MOL_PROPERTY
VdW6
SciTegic.value.DoubleValue
-179.471

@<SCITEGIC>MOL_PROPERTY
VdW12
SciTegic.value.DoubleValue
157.054

@<SCITEGIC>MOL_PROPERTY
Bond
SciTegic.value.DoubleValue
5.152

@<SCITEGIC>MOL_PROPERTY
Angle
SciTegic.value.DoubleValue
15.333

@<SCITEGIC>MOL_PROPERTY
Pdih
SciTegic.value.DoubleValue
129.459

@<SCITEGIC>MOL_PROPERTY
Idih
SciTegic.value.DoubleValue
0.008

@<SCITEGIC>MOL_PROPERTY
Tether
SciTegic.value.DoubleValue
0.000

