@<TRIPOS>MOLECULE
CD_guest-5_fast_vm2_rndm.mol2 : feprocess host+ligand conformer 1
         148         154           2
SMALL
USER_CHARGES
 
@<TRIPOS>ATOM
       1    C1      16.319827   15.285122   20.590404 C.3        1 MOL1         0.2972
       2    H1      15.321904   15.090542   20.177271 H          1 MOL1         0.0751
       3    O1      16.442295   16.635195   21.082240 O.3        1 MOL1        -0.3740
       4    C2      16.603673   14.337435   21.785159 C.3        1 MOL1         0.1003
       5    H2      16.527266   13.306942   21.414734 H          1 MOL1         0.0783
       6    O2      15.640878   14.535893   22.833335 O.3        1 MOL1        -0.5519
       7    H3      15.446425   15.506206   22.874918 H          1 MOL1         0.3769
       8    C3      18.040494   14.545674   22.325215 C.3        1 MOL1         0.1053
       9    H4      18.098898   15.546350   22.769648 H          1 MOL1         0.0783
      10    O3      18.331407   13.559855   23.321284 O.3        1 MOL1        -0.5519
      11    H5      17.532090   13.533412   23.893339 H          1 MOL1         0.3769
      12    C4      19.075243   14.465526   21.177327 C.3        1 MOL1         0.1018
      13    H6      19.130916   13.425556   20.829219 H          1 MOL1         0.0783
      14    C5      18.689550   15.372849   19.978565 C.3        1 MOL1         0.1043
      15    H7      18.740367   16.420165   20.296439 H          1 MOL1         0.0783
      16    O4      17.332887   15.062193   19.582336 O.3        1 MOL1        -0.3740
      17    C6      19.618355   15.236490   18.743458 C.3        1 MOL1         0.0138
      18    H8      20.439450   15.956839   18.847000 H          1 MOL1         0.0794
      19    H9      19.053818   15.526886   17.847426 H          1 MOL1         0.0794
      20    O5      20.157895   13.918892   18.579339 O.3        1 MOL1        -0.5486
      21    H10     20.835365   13.791352   19.283857 H          1 MOL1         0.3769
      22    C7      14.701612   20.393754   20.886467 C.3        1 MOL1         0.2972
      23    H11     14.056415   21.265554   20.717381 H          1 MOL1         0.0751
      24    O6      16.024300   20.781426   21.306507 O.3        1 MOL1        -0.3740
      25    C8      14.100330   19.451231   21.961415 C.3        1 MOL1         0.1003
      26    H12     13.137075   19.090067   21.578249 H          1 MOL1         0.0783
      27    O7      13.881106   20.139882   23.202197 O.3        1 MOL1        -0.5519
      28    H13     14.732961   20.580384   23.452400 H          1 MOL1         0.3769
      29    C9      15.019460   18.223820   22.174029 C.3        1 MOL1         0.1053
      30    H14     15.964146   18.579304   22.602902 H          1 MOL1         0.0783
      31    O8      14.397651   17.303193   23.076696 O.3        1 MOL1        -0.5519
      32    H15     14.050088   17.858946   23.809279 H          1 MOL1         0.3769
      33    C10     15.328145   17.514530   20.831979 C.3        1 MOL1         0.1018
      34    H16     14.429555   16.964201   20.523899 H          1 MOL1         0.0783
      35    C11     15.746522   18.507918   19.711088 C.3        1 MOL1         0.1043
      36    H17     16.756542   18.874884   19.936935 H          1 MOL1         0.0783
      37    O9      14.829619   19.630658   19.668641 O.3        1 MOL1        -0.3740
      38    C12     15.788498   17.868498   18.302289 C.3        1 MOL1         0.0138
      39    H18     16.649869   17.190161   18.251527 H          1 MOL1         0.0794
      40    H19     15.957143   18.662392   17.562531 H          1 MOL1         0.0794
      41    O10     14.585473   17.151159   17.996830 O.3        1 MOL1        -0.5486
      42    H20     14.672625   16.799885   17.084077 H          1 MOL1         0.3769
      43    C13     18.494809   23.946279   22.191000 C.3        1 MOL1         0.2972
      44    H21     18.966536   24.903817   22.446763 H          1 MOL1         0.0751
      45    O11     19.479605   22.954774   21.836995 O.3        1 MOL1        -0.3740
      46    C14     17.667700   23.429718   23.393521 C.3        1 MOL1         0.1003
      47    H22     16.868099   24.157937   23.581125 H          1 MOL1         0.0783
      48    O12     18.481232   23.309253   24.569260 O.3        1 MOL1        -0.5519
      49    H23     19.194538   22.656640   24.352931 H          1 MOL1         0.3769
      50    C15     17.016143   22.072706   23.054358 C.3        1 MOL1         0.1053
      51    H24     17.823296   21.347926   22.907131 H          1 MOL1         0.0783
      52    O13     16.184528   21.656748   24.141833 O.3        1 MOL1        -0.5519
      53    H25     16.705172   21.863066   24.949964 H          1 MOL1         0.3769
      54    C16     16.196833   22.144109   21.743941 C.3        1 MOL1         0.1018
      55    H26     15.239678   22.639996   21.953138 H          1 MOL1         0.0783
      56    C17     16.952788   22.880031   20.600959 C.3        1 MOL1         0.1043
      57    H27     17.725596   22.193798   20.240034 H          1 MOL1         0.0783
      58    O14     17.592588   24.097085   21.072049 O.3        1 MOL1        -0.3740
      59    C18     16.051697   23.230650   19.392910 C.3        1 MOL1         0.0138
      60    H28     15.777520   22.298542   18.880354 H          1 MOL1         0.0794
      61    H29     16.632805   23.833866   18.682502 H          1 MOL1         0.0794
      62    O15     14.867628   23.932384   19.791292 O.3        1 MOL1        -0.5486
      63    H30     14.381132   24.183002   18.975722 H          1 MOL1         0.3769
      64    C19     23.464918   22.613702   20.714676 C.3        1 MOL1         0.2972
      65    H31     24.461162   22.752002   20.275186 H          1 MOL1         0.0751
      66    O16     23.329956   21.320645   21.338585 O.3        1 MOL1        -0.3740
      67    C20     23.198266   23.684117   21.801047 C.3        1 MOL1         0.1003
      68    H32     23.295720   24.666331   21.320652 H          1 MOL1         0.0783
      69    O17     24.163498   23.577963   22.861156 O.3        1 MOL1        -0.5519
      70    H33     24.260311   22.615690   23.074475 H          1 MOL1         0.3769
      71    C21     21.759437   23.573881   22.368863 C.3        1 MOL1         0.1053
      72    H34     21.701792   22.666968   22.983928 H          1 MOL1         0.0783
      73    O18     21.500198   24.725201   23.178075 O.3        1 MOL1        -0.5519
      74    H35     22.253555   24.775440   23.806003 H          1 MOL1         0.3769
      75    C22     20.692533   23.461056   21.245572 C.3        1 MOL1         0.1018
      76    H36     20.545283   24.454455   20.802291 H          1 MOL1         0.0783
      77    C23     21.101102   22.460975   20.128725 C.3        1 MOL1         0.1043
      78    H37     21.066525   21.447555   20.543856 H          1 MOL1         0.0783
      79    O19     22.449756   22.749853   19.698693 O.3        1 MOL1        -0.3740
      80    C24     20.178929   22.466588   18.881535 C.3        1 MOL1         0.0138
      81    H38     19.391090   21.718305   19.030119 H          1 MOL1         0.0794
      82    H39     20.762893   22.134316   18.012854 H          1 MOL1         0.0794
      83    O20     19.590771   23.746875   18.614779 O.3        1 MOL1        -0.5486
      84    H40     19.010818   23.970911   19.378432 H          1 MOL1         0.3769
      85    C25     25.165380   17.602014   21.477358 C.3        1 MOL1         0.2972
      86    H41     25.857829   16.751888   21.428552 H          1 MOL1         0.0751
      87    O21     23.809165   17.180006   21.721728 O.3        1 MOL1        -0.3740
      88    C26     25.567518   18.574322   22.615037 C.3        1 MOL1         0.1003
      89    H42     26.572468   18.953388   22.388176 H          1 MOL1         0.0783
      90    O22     25.590834   17.903281   23.885332 O.3        1 MOL1        -0.5519
      91    H43     24.795311   17.314123   23.927878 H          1 MOL1         0.3769
      92    C27     24.598509   19.779933   22.657107 C.3        1 MOL1         0.1053
      93    H44     23.608166   19.403029   22.936523 H          1 MOL1         0.0783
      94    O23     25.047764   20.731576   23.627729 O.3        1 MOL1        -0.5519
      95    H45     25.285585   20.196833   24.417544 H          1 MOL1         0.3769
      96    C28     24.482626   20.459072   21.271339 C.3        1 MOL1         0.1018
      97    H46     25.407025   21.023837   21.091803 H          1 MOL1         0.0783
      98    C29     24.252545   19.435087   20.123304 C.3        1 MOL1         0.1043
      99    H47     23.230949   19.042487   20.212799 H          1 MOL1         0.0783
     100    O24     25.194970   18.340248   20.238109 O.3        1 MOL1        -0.3740
     101    C30     24.394909   20.041903   18.706425 C.3        1 MOL1         0.0138
     102    H48     23.522342   20.677650   18.507819 H          1 MOL1         0.0794
     103    H49     24.373550   19.225097   17.972680 H          1 MOL1         0.0794
     104    O25     25.598223   20.807674   18.563212 O.3        1 MOL1        -0.5486
     105    H50     25.647263   21.112732   17.631118 H          1 MOL1         0.3769
     106    C31     21.321116   13.900538   21.912746 C.3        1 MOL1         0.2972
     107    H51     20.863703   12.904484   21.974468 H          1 MOL1         0.0751
     108    O26     20.333362   14.927442   21.698225 O.3        1 MOL1        -0.3740
     109    C32     22.071556   14.211931   23.228500 C.3        1 MOL1         0.1003
     110    H52     22.871230   13.468096   23.339538 H          1 MOL1         0.0783
     111    O27     21.181150   14.122347   24.352338 O.3        1 MOL1        -0.5519
     112    H53     20.260340   14.160027   23.994602 H          1 MOL1         0.3769
     113    C33     22.723148   15.610452   23.157392 C.3        1 MOL1         0.1053
     114    H54     21.919610   16.353464   23.109921 H          1 MOL1         0.0783
     115    O28     23.513905   15.830297   24.329086 O.3        1 MOL1        -0.5519
     116    H55     22.943379   15.535171   25.073648 H          1 MOL1         0.3769
     117    C34     23.595231   15.765290   21.888100 C.3        1 MOL1         0.1018
     118    H56     24.533493   15.216528   22.043136 H          1 MOL1         0.0783
     119    C35     22.885358   15.257017   20.600823 C.3        1 MOL1         0.1043
     120    H57     22.107043   15.985986   20.343149 H          1 MOL1         0.0783
     121    O29     22.266920   13.962673   20.825194 O.3        1 MOL1        -0.3740
     122    C36     23.830648   15.141265   19.381374 C.3        1 MOL1         0.0138
     123    H58     24.111141   16.153095   19.059543 H          1 MOL1         0.0794
     124    H59     23.279940   14.676643   18.552428 H          1 MOL1         0.0794
     125    O30     25.009033   14.383846   19.683916 O.3        1 MOL1        -0.5486
     126    H60     25.536122   14.311145   18.858565 H          1 MOL1         0.3769
     127    C1      19.469990   17.329614   24.969102 C.3        1 MOL1        -0.1685
     128    H1      20.043094   16.652190   24.325705 H          1 MOL1         0.0832
     129    H2      18.946773   16.688524   25.691315 H          1 MOL1         0.0832
     130    C2      18.406693   18.085429   24.144409 C.3        1 MOL1        -0.1685
     131    H3      17.539494   17.425836   24.006769 H          1 MOL1         0.0832
     132    H4      18.020658   18.936316   24.719417 H          1 MOL1         0.0832
     133    C3      18.878094   18.544558   22.743254 C.3        1 MOL1        -0.1685
     134    H5      18.174764   19.295017   22.366564 H          1 MOL1         0.0832
     135    H6      18.781433   17.697835   22.057071 H          1 MOL1         0.0832
     136    C4      20.325633   19.087574   22.603675 C.3        1 MOL1        -0.1761
     137    H7      21.001868   18.248511   22.404255 H          1 MOL1         0.0832
     138    H8      20.365227   19.702107   21.698129 H          1 MOL1         0.0832
     139    C5      20.905958   19.913988   23.773560 C.3        1 MOL1         0.1218
     140    H9      21.751621   20.489789   23.376744 H          1 MOL1         0.0789
     141    C6      21.456747   19.031566   24.915833 C.3        1 MOL1        -0.1761
     142    H10     22.171812   18.313760   24.497143 H          1 MOL1         0.0832
     143    H11     22.043440   19.672405   25.586604 H          1 MOL1         0.0832
     144    C7      20.411286   18.264723   25.764159 C.3        1 MOL1        -0.1685
     145    H12     20.955785   17.658077   26.500159 H          1 MOL1         0.0832
     146    H13     19.815403   18.976511   26.350939 H          1 MOL1         0.0832
     147    O1      19.940215   20.814916   24.283771 O.3        1 MOL1        -0.5509
     148    H14     19.243318   20.219834   24.621724 H          1 MOL1         0.3779
@<TRIPOS>BOND
    1     1     2    1
    2     1     3    1
    3     1     4    1
    4     4     5    1
    5     4     6    1
    6     6     7    1
    7     4     8    1
    8     8     9    1
    9     8    10    1
   10    10    11    1
   11     8    12    1
   12    12    13    1
   13    12    14    1
   14    14    15    1
   15     1    16    1
   16    14    16    1
   17    14    17    1
   18    17    18    1
   19    17    19    1
   20    17    20    1
   21    20    21    1
   22    22    23    1
   23    22    24    1
   24    22    25    1
   25    25    26    1
   26    25    27    1
   27    27    28    1
   28    25    29    1
   29    29    30    1
   30    29    31    1
   31    31    32    1
   32     3    33    1
   33    29    33    1
   34    33    34    1
   35    33    35    1
   36    35    36    1
   37    22    37    1
   38    35    37    1
   39    35    38    1
   40    38    39    1
   41    38    40    1
   42    38    41    1
   43    41    42    1
   44    43    44    1
   45    43    45    1
   46    43    46    1
   47    46    47    1
   48    46    48    1
   49    48    49    1
   50    46    50    1
   51    50    51    1
   52    50    52    1
   53    52    53    1
   54    24    54    1
   55    50    54    1
   56    54    55    1
   57    54    56    1
   58    56    57    1
   59    43    58    1
   60    56    58    1
   61    56    59    1
   62    59    60    1
   63    59    61    1
   64    59    62    1
   65    62    63    1
   66    64    65    1
   67    64    66    1
   68    64    67    1
   69    67    68    1
   70    67    69    1
   71    69    70    1
   72    67    71    1
   73    71    72    1
   74    71    73    1
   75    73    74    1
   76    45    75    1
   77    71    75    1
   78    75    76    1
   79    75    77    1
   80    77    78    1
   81    64    79    1
   82    77    79    1
   83    77    80    1
   84    80    81    1
   85    80    82    1
   86    80    83    1
   87    83    84    1
   88    85    86    1
   89    85    87    1
   90    85    88    1
   91    88    89    1
   92    88    90    1
   93    90    91    1
   94    88    92    1
   95    92    93    1
   96    92    94    1
   97    94    95    1
   98    66    96    1
   99    92    96    1
  100    96    97    1
  101    96    98    1
  102    98    99    1
  103    85   100    1
  104    98   100    1
  105    98   101    1
  106   101   102    1
  107   101   103    1
  108   101   104    1
  109   104   105    1
  110   106   107    1
  111    12   108    1
  112   106   108    1
  113   106   109    1
  114   109   110    1
  115   109   111    1
  116   111   112    1
  117   109   113    1
  118   113   114    1
  119   113   115    1
  120   115   116    1
  121    87   117    1
  122   113   117    1
  123   117   118    1
  124   117   119    1
  125   119   120    1
  126   106   121    1
  127   119   121    1
  128   119   122    1
  129   122   123    1
  130   122   124    1
  131   122   125    1
  132   125   126    1
  133   127   128    1
  134   127   129    1
  135   127   130    1
  136   130   131    1
  137   130   132    1
  138   130   133    1
  139   133   134    1
  140   133   135    1
  141   133   136    1
  142   136   137    1
  143   136   138    1
  144   136   139    1
  145   139   140    1
  146   139   141    1
  147   141   142    1
  148   141   143    1
  149   127   144    1
  150   141   144    1
  151   144   145    1
  152   144   146    1
  153   139   147    1
  154   147   148    1
@<TRIPOS>SUBSTRUCTURE
       1 MOL1            1 RESIDUE      1      MOL     
       2 MOL1          148 RESIDUE      1      MOL     
@<SCITEGIC>MOL_PROPERTY
feprocess Rank
SciTegic.value.IntegerValue
1

@<SCITEGIC>MOL_PROPERTY
Conf_Id
SciTegic.value.IntegerValue
751

@<SCITEGIC>MOL_PROPERTY
Probability
SciTegic.value.DoubleValue
41.89

@<SCITEGIC>MOL_PROPERTY
G
SciTegic.value.DoubleValue
572.578

@<SCITEGIC>MOL_PROPERTY
E
SciTegic.value.DoubleValue
375.914

@<SCITEGIC>MOL_PROPERTY
-TS
SciTegic.value.DoubleValue
196.664

@<SCITEGIC>MOL_PROPERTY
U+W
SciTegic.value.DoubleValue
245.354

@<SCITEGIC>MOL_PROPERTY
U
SciTegic.value.DoubleValue
282.811

@<SCITEGIC>MOL_PROPERTY
W
SciTegic.value.DoubleValue
-37.458

@<SCITEGIC>MOL_PROPERTY
W(PB)
SciTegic.value.DoubleValue
-43.586

@<SCITEGIC>MOL_PROPERTY
W(SA)
SciTegic.value.DoubleValue
6.128

@<SCITEGIC>MOL_PROPERTY
Valence
SciTegic.value.DoubleValue
157.727

@<SCITEGIC>MOL_PROPERTY
Coulomb
SciTegic.value.DoubleValue
150.487

@<SCITEGIC>MOL_PROPERTY
VdW
SciTegic.value.DoubleValue
-25.403

@<SCITEGIC>MOL_PROPERTY
VdW6
SciTegic.value.DoubleValue
-181.708

@<SCITEGIC>MOL_PROPERTY
VdW12
SciTegic.value.DoubleValue
156.305

@<SCITEGIC>MOL_PROPERTY
Bond
SciTegic.value.DoubleValue
4.670

@<SCITEGIC>MOL_PROPERTY
Angle
SciTegic.value.DoubleValue
14.247

@<SCITEGIC>MOL_PROPERTY
Pdih
SciTegic.value.DoubleValue
138.809

@<SCITEGIC>MOL_PROPERTY
Idih
SciTegic.value.DoubleValue
0.000

@<SCITEGIC>MOL_PROPERTY
Tether
SciTegic.value.DoubleValue
0.000

@<TRIPOS>MOLECULE
CD_guest-5_fast_vm2_rndm.mol2 : feprocess host+ligand conformer 2
         148         154           2
SMALL
USER_CHARGES
 
@<TRIPOS>ATOM
       1    C1      16.289061   15.510544   20.138454 C.3        1 MOL1         0.2972
       2    H1      15.339084   15.380379   19.604070 H          1 MOL1         0.0751
       3    O1      16.337204   16.761554   20.846332 O.3        1 MOL1        -0.3740
       4    C2      16.517394   14.373334   21.170710 C.3        1 MOL1         0.1003
       5    H2      16.546139   13.427687   20.613975 H          1 MOL1         0.0783
       6    O2      15.453053   14.317004   22.133704 O.3        1 MOL1        -0.5519
       7    H3      15.343340   15.226585   22.511101 H          1 MOL1         0.3769
       8    C3      17.883041   14.550581   21.881823 C.3        1 MOL1         0.1053
       9    H4      17.840959   15.466940   22.486222 H          1 MOL1         0.0783
      10    O3      18.136683   13.425813   22.729953 O.3        1 MOL1        -0.5519
      11    H5      17.287298   13.259973   23.196656 H          1 MOL1         0.3769
      12    C4      19.021189   14.704474   20.842047 C.3        1 MOL1         0.1018
      13    H6      19.167586   13.741573   20.334845 H          1 MOL1         0.0783
      14    C5      18.695603   15.786662   19.777966 C.3        1 MOL1         0.1043
      15    H7      18.670588   16.766237   20.272012 H          1 MOL1         0.0783
      16    O4      17.395023   15.496393   19.206808 O.3        1 MOL1        -0.3740
      17    C6      19.734331   15.895347   18.631645 C.3        1 MOL1         0.0138
      18    H8      20.501303   16.621108   18.930311 H          1 MOL1         0.0794
      19    H9      19.236177   16.311230   17.745852 H          1 MOL1         0.0794
      20    O5      20.353832   14.643818   18.306380 O.3        1 MOL1        -0.5486
      21    H10     20.915593   14.386942   19.074263 H          1 MOL1         0.3769
      22    C7      14.512217   20.274770   21.687926 C.3        1 MOL1         0.2972
      23    H11     13.887476   21.157294   21.875643 H          1 MOL1         0.0751
      24    O6      15.919492   20.577517   21.767446 O.3        1 MOL1        -0.3740
      25    C8      14.209104   19.178047   22.732701 C.3        1 MOL1         0.1003
      26    H12     13.168105   18.857582   22.595719 H          1 MOL1         0.0783
      27    O7      14.384980   19.688692   24.064174 O.3        1 MOL1        -0.5519
      28    H13     15.111397   20.360277   24.025340 H          1 MOL1         0.3769
      29    C9      15.128097   17.960228   22.497222 C.3        1 MOL1         0.1053
      30    H14     16.151151   18.278906   22.723863 H          1 MOL1         0.0783
      31    O8      14.755069   16.895812   23.377434 O.3        1 MOL1        -0.5519
      32    H15     14.627027   17.325217   24.252687 H          1 MOL1         0.3769
      33    C10     15.100254   17.472936   21.026028 C.3        1 MOL1         0.1018
      34    H16     14.223203   16.827446   20.885272 H          1 MOL1         0.0783
      35    C11     15.106667   18.627309   19.979149 C.3        1 MOL1         0.1043
      36    H17     16.136311   19.001366   19.909668 H          1 MOL1         0.0783
      37    O9      14.242340   19.720856   20.384775 O.3        1 MOL1        -0.3740
      38    C12     14.695717   18.175566   18.557689 C.3        1 MOL1         0.0138
      39    H18     15.495725   17.544674   18.147155 H          1 MOL1         0.0794
      40    H19     14.619209   19.063667   17.916064 H          1 MOL1         0.0794
      41    O10     13.458347   17.453184   18.557769 O.3        1 MOL1        -0.5486
      42    H20     13.222098   17.265993   17.622968 H          1 MOL1         0.3769
      43    C13     18.550767   23.824397   21.719028 C.3        1 MOL1         0.2972
      44    H21     18.944070   24.848800   21.679815 H          1 MOL1         0.0751
      45    O11     19.620028   22.859065   21.734518 O.3        1 MOL1        -0.3740
      46    C14     17.710936   23.641214   23.009237 C.3        1 MOL1         0.1003
      47    H22     16.912416   24.394343   22.993148 H          1 MOL1         0.0783
      48    O12     18.530197   23.843296   24.170928 O.3        1 MOL1        -0.5519
      49    H23     19.464676   23.783633   23.864010 H          1 MOL1         0.3769
      50    C15     17.050641   22.244293   23.052449 C.3        1 MOL1         0.1053
      51    H24     17.844499   21.492218   23.150559 H          1 MOL1         0.0783
      52    O13     16.164837   22.163455   24.173802 O.3        1 MOL1        -0.5519
      53    H25     16.674289   22.540536   24.925512 H          1 MOL1         0.3769
      54    C16     16.278340   21.967454   21.742436 C.3        1 MOL1         0.1018
      55    H26     15.400463   22.625654   21.700817 H          1 MOL1         0.0783
      56    C17     17.172202   22.209910   20.497755 C.3        1 MOL1         0.1043
      57    H27     17.988019   21.478276   20.529267 H          1 MOL1         0.0783
      58    O14     17.724445   23.549384   20.564168 O.3        1 MOL1        -0.3740
      59    C18     16.455513   22.032947   19.133414 C.3        1 MOL1         0.0138
      60    H28     16.527294   20.979287   18.836015 H          1 MOL1         0.0794
      61    H29     16.995971   22.613032   18.373675 H          1 MOL1         0.0794
      62    O15     15.079262   22.426922   19.162865 O.3        1 MOL1        -0.5486
      63    H30     14.573514   21.664524   19.527422 H          1 MOL1         0.3769
      64    C19     23.682953   22.655710   20.761174 C.3        1 MOL1         0.2972
      65    H31     24.674261   22.822201   20.320240 H          1 MOL1         0.0751
      66    O16     23.673285   21.499975   21.621155 O.3        1 MOL1        -0.3740
      67    C20     23.269942   23.865262   21.639128 C.3        1 MOL1         0.1003
      68    H32     23.277145   24.758665   21.001305 H          1 MOL1         0.0783
      69    O17     24.203873   24.034744   22.716757 O.3        1 MOL1        -0.5519
      70    H33     24.366439   23.132684   23.081847 H          1 MOL1         0.3769
      71    C21     21.838133   23.683781   22.205351 C.3        1 MOL1         0.1053
      72    H34     21.865907   22.870293   22.940706 H          1 MOL1         0.0783
      73    O18     21.419872   24.891497   22.848875 O.3        1 MOL1        -0.5519
      74    H35     22.180689   25.163873   23.408409 H          1 MOL1         0.3769
      75    C22     20.832462   23.296555   21.091579 C.3        1 MOL1         0.1018
      76    H36     20.662229   24.174647   20.454429 H          1 MOL1         0.0783
      77    C23     21.360190   22.136443   20.206285 C.3        1 MOL1         0.1043
      78    H37     21.422580   21.227091   20.813348 H          1 MOL1         0.0783
      79    O19     22.680243   22.489227   19.734466 O.3        1 MOL1        -0.3740
      80    C24     20.471606   21.795637   18.983320 C.3        1 MOL1         0.0138
      81    H38     19.720379   21.060097   19.296219 H          1 MOL1         0.0794
      82    H39     21.095000   21.303133   18.225346 H          1 MOL1         0.0794
      83    O20     19.824361   22.942978   18.418168 O.3        1 MOL1        -0.5486
      84    H40     19.171148   23.268495   19.079867 H          1 MOL1         0.3769
      85    C25     25.169245   17.628701   21.682621 C.3        1 MOL1         0.2972
      86    H41     25.793480   16.727347   21.632863 H          1 MOL1         0.0751
      87    O21     23.779056   17.307863   21.894457 O.3        1 MOL1        -0.3740
      88    C26     25.631916   18.538926   22.843479 C.3        1 MOL1         0.1003
      89    H42     26.679389   18.808468   22.655916 H          1 MOL1         0.0783
      90    O22     25.535621   17.849845   24.101519 O.3        1 MOL1        -0.5519
      91    H43     24.686233   17.340106   24.097625 H          1 MOL1         0.3769
      92    C27     24.801213   19.842410   22.877191 C.3        1 MOL1         0.1053
      93    H44     23.774151   19.575031   23.153329 H          1 MOL1         0.0783
      94    O23     25.351031   20.725939   23.860983 O.3        1 MOL1        -0.5519
      95    H45     25.495136   20.165594   24.655104 H          1 MOL1         0.3769
      96    C28     24.751820   20.549741   21.497510 C.3        1 MOL1         0.1018
      97    H46     25.712540   21.055969   21.337614 H          1 MOL1         0.0783
      98    C29     24.462567   19.556550   20.327022 C.3        1 MOL1         0.1043
      99    H47     23.406384   19.260426   20.374574 H          1 MOL1         0.0783
     100    O24     25.294737   18.379376   20.461147 O.3        1 MOL1        -0.3740
     101    C30     24.735238   20.116079   18.907629 C.3        1 MOL1         0.0138
     102    H48     23.896802   20.749718   18.599674 H          1 MOL1         0.0794
     103    H49     24.761746   19.273009   18.204217 H          1 MOL1         0.0794
     104    O25     25.962740   20.853125   18.836409 O.3        1 MOL1        -0.5486
     105    H50     26.098159   21.114711   17.899700 H          1 MOL1         0.3769
     106    C31     21.170235   14.085392   21.788649 C.3        1 MOL1         0.2972
     107    H51     20.703613   13.091582   21.785599 H          1 MOL1         0.0751
     108    O26     20.202511   15.121932   21.545777 O.3        1 MOL1        -0.3740
     109    C32     21.826854   14.352084   23.164528 C.3        1 MOL1         0.1003
     110    H52     22.593523   13.582694   23.323486 H          1 MOL1         0.0783
     111    O27     20.845481   14.273401   24.210864 O.3        1 MOL1        -0.5519
     112    H53     19.962372   14.276541   23.770157 H          1 MOL1         0.3769
     113    C33     22.517609   15.733596   23.177868 C.3        1 MOL1         0.1053
     114    H54     21.737403   16.496387   23.096119 H          1 MOL1         0.0783
     115    O28     23.235355   15.905292   24.403866 O.3        1 MOL1        -0.5519
     116    H55     22.608189   15.618817   25.104540 H          1 MOL1         0.3769
     117    C34     23.476687   15.899866   21.977362 C.3        1 MOL1         0.1018
     118    H56     24.371155   15.292914   22.170404 H          1 MOL1         0.0783
     119    C35     22.828797   15.473188   20.630737 C.3        1 MOL1         0.1043
     120    H57     22.078716   16.229924   20.371569 H          1 MOL1         0.0783
     121    O29     22.181570   14.180444   20.763747 O.3        1 MOL1        -0.3740
     122    C36     23.831788   15.391509   19.455136 C.3        1 MOL1         0.0138
     123    H58     24.133005   16.410840   19.180579 H          1 MOL1         0.0794
     124    H59     23.319362   14.960349   18.584671 H          1 MOL1         0.0794
     125    O30     24.989144   14.614156   19.787503 O.3        1 MOL1        -0.5486
     126    H60     25.557608   14.570740   18.988114 H          1 MOL1         0.3769
     127    C1      19.350488   18.016853   25.545515 C.3        1 MOL1        -0.1685
     128    H1      18.724482   17.920825   26.442773 H          1 MOL1         0.0832
     129    H2      19.797624   17.026309   25.383376 H          1 MOL1         0.0832
     130    C2      20.462826   19.043671   25.845472 C.3        1 MOL1        -0.1685
     131    H3      20.009337   19.991040   26.166985 H          1 MOL1         0.0832
     132    H4      21.043612   18.679851   26.703729 H          1 MOL1         0.0832
     133    C3      21.433075   19.307250   24.673397 C.3        1 MOL1        -0.1685
     134    H5      21.864296   18.369254   24.308282 H          1 MOL1         0.0832
     135    H6      22.274209   19.894247   25.066471 H          1 MOL1         0.0832
     136    C4      20.789092   20.110628   23.519583 C.3        1 MOL1        -0.1761
     137    H7      20.123848   20.876868   23.937343 H          1 MOL1         0.0832
     138    H8      21.581790   20.664662   23.008122 H          1 MOL1         0.0832
     139    C5      20.016639   19.295259   22.456791 C.3        1 MOL1         0.1218
     140    H9      19.364699   20.003783   21.927435 H          1 MOL1         0.0789
     141    C6      19.122187   18.149111   22.981023 C.3        1 MOL1        -0.1761
     142    H10     18.344921   17.981439   22.227789 H          1 MOL1         0.0832
     143    H11     19.690213   17.215401   23.026165 H          1 MOL1         0.0832
     144    C7      18.440072   18.379370   24.350239 C.3        1 MOL1        -0.1685
     145    H12     18.063383   19.407152   24.437418 H          1 MOL1         0.0832
     146    H13     17.560981   17.724140   24.404779 H          1 MOL1         0.0832
     147    O1      20.945701   18.755199   21.522635 O.3        1 MOL1        -0.5509
     148    H14     21.641729   18.312756   22.048207 H          1 MOL1         0.3779
@<TRIPOS>BOND
    1     1     2    1
    2     1     3    1
    3     1     4    1
    4     4     5    1
    5     4     6    1
    6     6     7    1
    7     4     8    1
    8     8     9    1
    9     8    10    1
   10    10    11    1
   11     8    12    1
   12    12    13    1
   13    12    14    1
   14    14    15    1
   15     1    16    1
   16    14    16    1
   17    14    17    1
   18    17    18    1
   19    17    19    1
   20    17    20    1
   21    20    21    1
   22    22    23    1
   23    22    24    1
   24    22    25    1
   25    25    26    1
   26    25    27    1
   27    27    28    1
   28    25    29    1
   29    29    30    1
   30    29    31    1
   31    31    32    1
   32     3    33    1
   33    29    33    1
   34    33    34    1
   35    33    35    1
   36    35    36    1
   37    22    37    1
   38    35    37    1
   39    35    38    1
   40    38    39    1
   41    38    40    1
   42    38    41    1
   43    41    42    1
   44    43    44    1
   45    43    45    1
   46    43    46    1
   47    46    47    1
   48    46    48    1
   49    48    49    1
   50    46    50    1
   51    50    51    1
   52    50    52    1
   53    52    53    1
   54    24    54    1
   55    50    54    1
   56    54    55    1
   57    54    56    1
   58    56    57    1
   59    43    58    1
   60    56    58    1
   61    56    59    1
   62    59    60    1
   63    59    61    1
   64    59    62    1
   65    62    63    1
   66    64    65    1
   67    64    66    1
   68    64    67    1
   69    67    68    1
   70    67    69    1
   71    69    70    1
   72    67    71    1
   73    71    72    1
   74    71    73    1
   75    73    74    1
   76    45    75    1
   77    71    75    1
   78    75    76    1
   79    75    77    1
   80    77    78    1
   81    64    79    1
   82    77    79    1
   83    77    80    1
   84    80    81    1
   85    80    82    1
   86    80    83    1
   87    83    84    1
   88    85    86    1
   89    85    87    1
   90    85    88    1
   91    88    89    1
   92    88    90    1
   93    90    91    1
   94    88    92    1
   95    92    93    1
   96    92    94    1
   97    94    95    1
   98    66    96    1
   99    92    96    1
  100    96    97    1
  101    96    98    1
  102    98    99    1
  103    85   100    1
  104    98   100    1
  105    98   101    1
  106   101   102    1
  107   101   103    1
  108   101   104    1
  109   104   105    1
  110   106   107    1
  111    12   108    1
  112   106   108    1
  113   106   109    1
  114   109   110    1
  115   109   111    1
  116   111   112    1
  117   109   113    1
  118   113   114    1
  119   113   115    1
  120   115   116    1
  121    87   117    1
  122   113   117    1
  123   117   118    1
  124   117   119    1
  125   119   120    1
  126   106   121    1
  127   119   121    1
  128   119   122    1
  129   122   123    1
  130   122   124    1
  131   122   125    1
  132   125   126    1
  133   127   128    1
  134   127   129    1
  135   127   130    1
  136   130   131    1
  137   130   132    1
  138   130   133    1
  139   133   134    1
  140   133   135    1
  141   133   136    1
  142   136   137    1
  143   136   138    1
  144   136   139    1
  145   139   140    1
  146   139   141    1
  147   141   142    1
  148   141   143    1
  149   127   144    1
  150   141   144    1
  151   144   145    1
  152   144   146    1
  153   139   147    1
  154   147   148    1
@<TRIPOS>SUBSTRUCTURE
       1 MOL1            1 RESIDUE      1      MOL     
       2 MOL1          148 RESIDUE      1      MOL     
@<SCITEGIC>MOL_PROPERTY
feprocess Rank
SciTegic.value.IntegerValue
2

@<SCITEGIC>MOL_PROPERTY
Conf_Id
SciTegic.value.IntegerValue
366

@<SCITEGIC>MOL_PROPERTY
Probability
SciTegic.value.DoubleValue
6.41

@<SCITEGIC>MOL_PROPERTY
G
SciTegic.value.DoubleValue
573.697

@<SCITEGIC>MOL_PROPERTY
E
SciTegic.value.DoubleValue
378.900

@<SCITEGIC>MOL_PROPERTY
-TS
SciTegic.value.DoubleValue
194.797

@<SCITEGIC>MOL_PROPERTY
U+W
SciTegic.value.DoubleValue
248.340

@<SCITEGIC>MOL_PROPERTY
U
SciTegic.value.DoubleValue
282.251

@<SCITEGIC>MOL_PROPERTY
W
SciTegic.value.DoubleValue
-33.911

@<SCITEGIC>MOL_PROPERTY
W(PB)
SciTegic.value.DoubleValue
-39.938

@<SCITEGIC>MOL_PROPERTY
W(SA)
SciTegic.value.DoubleValue
6.026

@<SCITEGIC>MOL_PROPERTY
Valence
SciTegic.value.DoubleValue
158.533

@<SCITEGIC>MOL_PROPERTY
Coulomb
SciTegic.value.DoubleValue
151.391

@<SCITEGIC>MOL_PROPERTY
VdW
SciTegic.value.DoubleValue
-27.673

@<SCITEGIC>MOL_PROPERTY
VdW6
SciTegic.value.DoubleValue
-183.475

@<SCITEGIC>MOL_PROPERTY
VdW12
SciTegic.value.DoubleValue
155.802

@<SCITEGIC>MOL_PROPERTY
Bond
SciTegic.value.DoubleValue
4.466

@<SCITEGIC>MOL_PROPERTY
Angle
SciTegic.value.DoubleValue
14.105

@<SCITEGIC>MOL_PROPERTY
Pdih
SciTegic.value.DoubleValue
139.962

@<SCITEGIC>MOL_PROPERTY
Idih
SciTegic.value.DoubleValue
0.000

@<SCITEGIC>MOL_PROPERTY
Tether
SciTegic.value.DoubleValue
0.000

@<TRIPOS>MOLECULE
CD_guest-5_fast_vm2_rndm.mol2 : feprocess host+ligand conformer 3
         148         154           2
SMALL
USER_CHARGES
 
@<TRIPOS>ATOM
       1    C1      16.163012   15.039966   21.488444 C.3        1 MOL1         0.2972
       2    H1      15.069727   14.943228   21.498121 H          1 MOL1         0.0751
       3    O1      16.580307   16.416395   21.610140 O.3        1 MOL1        -0.3740
       4    C2      16.764846   14.239742   22.666408 C.3        1 MOL1         0.1003
       5    H2      16.506651   13.182442   22.523149 H          1 MOL1         0.0783
       6    O2      16.224184   14.702108   23.914841 O.3        1 MOL1        -0.5519
       7    H3      15.916438   15.631595   23.771356 H          1 MOL1         0.3769
       8    C3      18.302335   14.367243   22.664972 C.3        1 MOL1         0.1053
       9    H4      18.533195   15.411792   22.890632 H          1 MOL1         0.0783
      10    O3      18.868530   13.519682   23.670094 O.3        1 MOL1        -0.5519
      11    H5      18.319021   13.673903   24.470364 H          1 MOL1         0.3769
      12    C4      18.919369   14.033121   21.285724 C.3        1 MOL1         0.1018
      13    H6      18.961765   12.941118   21.179030 H          1 MOL1         0.0783
      14    C5      18.144184   14.669975   20.095357 C.3        1 MOL1         0.1043
      15    H7      18.386665   15.739780   20.081975 H          1 MOL1         0.0783
      16    O4      16.711294   14.512062   20.264005 O.3        1 MOL1        -0.3740
      17    C6      18.532579   14.094258   18.712305 C.3        1 MOL1         0.0138
      18    H8      19.536735   14.452952   18.451037 H          1 MOL1         0.0794
      19    H9      17.840293   14.494619   17.959396 H          1 MOL1         0.0794
      20    O5      18.508206   12.661694   18.698401 O.3        1 MOL1        -0.5486
      21    H10     18.691622   12.369428   17.778918 H          1 MOL1         0.3769
      22    C7      14.889490   20.242630   21.119006 C.3        1 MOL1         0.2972
      23    H11     14.172693   21.030326   20.853736 H          1 MOL1         0.0751
      24    O6      16.148633   20.792309   21.548861 O.3        1 MOL1        -0.3740
      25    C8      14.339864   19.385687   22.291006 C.3        1 MOL1         0.1003
      26    H12     13.365510   18.988175   21.978643 H          1 MOL1         0.0783
      27    O7      14.166286   20.189990   23.469535 O.3        1 MOL1        -0.5519
      28    H13     14.922675   20.828137   23.503720 H          1 MOL1         0.3769
      29    C9      15.270100   18.183179   22.592026 C.3        1 MOL1         0.1053
      30    H14     16.218173   18.569531   22.988835 H          1 MOL1         0.0783
      31    O8      14.652819   17.324699   23.557196 O.3        1 MOL1        -0.5519
      32    H15     14.316447   17.928349   24.256510 H          1 MOL1         0.3769
      33    C10     15.572394   17.394638   21.296289 C.3        1 MOL1         0.1018
      34    H16     14.642154   16.927626   20.946282 H          1 MOL1         0.0783
      35    C11     16.107650   18.334337   20.184323 C.3        1 MOL1         0.1043
      36    H17     17.056512   18.773557   20.518760 H          1 MOL1         0.0783
      37    O9      15.132241   19.383549   19.982518 O.3        1 MOL1        -0.3740
      38    C12     16.373485   17.648610   18.819296 C.3        1 MOL1         0.0138
      39    H18     17.394932   17.249427   18.821704 H          1 MOL1         0.0794
      40    H19     16.335621   18.413699   18.032489 H          1 MOL1         0.0794
      41    O10     15.446845   16.596695   18.524439 O.3        1 MOL1        -0.5486
      42    H20     15.717124   15.815005   19.060718 H          1 MOL1         0.3769
      43    C13     18.461094   24.216300   21.373410 C.3        1 MOL1         0.2972
      44    H21     18.849802   25.238597   21.284159 H          1 MOL1         0.0751
      45    O11     19.523975   23.249514   21.500679 O.3        1 MOL1        -0.3740
      46    C14     17.560420   24.102837   22.627772 C.3        1 MOL1         0.1003
      47    H22     16.729976   24.810172   22.505218 H          1 MOL1         0.0783
      48    O12     18.299952   24.438608   23.813280 O.3        1 MOL1        -0.5519
      49    H23     19.252085   24.243928   23.627068 H          1 MOL1         0.3769
      50    C15     16.963447   22.681060   22.747102 C.3        1 MOL1         0.1053
      51    H24     17.783602   21.989938   22.955891 H          1 MOL1         0.0783
      52    O13     16.017520   22.638726   23.820574 O.3        1 MOL1        -0.5519
      53    H25     16.466637   23.087831   24.570522 H          1 MOL1         0.3769
      54    C16     16.290150   22.222055   21.433171 C.3        1 MOL1         0.1018
      55    H26     15.320326   22.730181   21.352000 H          1 MOL1         0.0783
      56    C17     17.155721   22.519560   20.175610 C.3        1 MOL1         0.1043
      57    H27     18.002494   21.820958   20.171057 H          1 MOL1         0.0783
      58    O14     17.660500   23.877004   20.222967 O.3        1 MOL1        -0.3740
      59    C18     16.397335   22.340359   18.838171 C.3        1 MOL1         0.0138
      60    H28     16.252870   21.267748   18.657141 H          1 MOL1         0.0794
      61    H29     17.028198   22.722905   18.024768 H          1 MOL1         0.0794
      62    O15     15.129642   23.009451   18.839507 O.3        1 MOL1        -0.5486
      63    H30     14.727394   22.886119   17.952311 H          1 MOL1         0.3769
      64    C19     23.611512   22.706245   20.962080 C.3        1 MOL1         0.2972
      65    H31     24.674024   22.802500   20.703837 H          1 MOL1         0.0751
      66    O16     23.283358   21.362164   21.364685 O.3        1 MOL1        -0.3740
      67    C20     23.219999   23.685419   22.101191 C.3        1 MOL1         0.1003
      68    H32     23.393468   24.703449   21.728844 H          1 MOL1         0.0783
      69    O17     24.018210   23.477952   23.276205 O.3        1 MOL1        -0.5519
      70    H33     23.919896   22.526501   23.535572 H          1 MOL1         0.3769
      71    C21     21.714040   23.551148   22.434001 C.3        1 MOL1         0.1053
      72    H34     21.546602   22.546839   22.842907 H          1 MOL1         0.0783
      73    O18     21.339977   24.534486   23.404591 O.3        1 MOL1        -0.5519
      74    H35     22.059551   24.519583   24.074347 H          1 MOL1         0.3769
      75    C22     20.846835   23.711684   21.160701 C.3        1 MOL1         0.1018
      76    H36     20.852116   24.769303   20.866297 H          1 MOL1         0.0783
      77    C23     21.365977   22.850131   19.976352 C.3        1 MOL1         0.1043
      78    H37     21.154314   21.795584   20.197083 H          1 MOL1         0.0783
      79    O19     22.796482   23.030097   19.816737 O.3        1 MOL1        -0.3740
      80    C24     20.687297   23.193270   18.628642 C.3        1 MOL1         0.0138
      81    H38     19.638162   22.875698   18.675234 H          1 MOL1         0.0794
      82    H39     21.170153   22.609002   17.834065 H          1 MOL1         0.0794
      83    O20     20.757083   24.593441   18.329140 O.3        1 MOL1        -0.5486
      84    H40     20.308188   24.736753   17.467980 H          1 MOL1         0.3769
      85    C25     24.828576   17.625039   22.176860 C.3        1 MOL1         0.2972
      86    H41     25.444037   16.748525   22.417088 H          1 MOL1         0.0751
      87    O21     23.485642   17.239390   21.822254 O.3        1 MOL1        -0.3740
      88    C26     24.776461   18.578708   23.395629 C.3        1 MOL1         0.1003
      89    H42     25.802133   18.914903   23.595077 H          1 MOL1         0.0783
      90    O22     24.265292   17.907889   24.556469 O.3        1 MOL1        -0.5519
      91    H43     23.343565   17.622738   24.331766 H          1 MOL1         0.3769
      92    C27     23.914611   19.818322   23.076990 C.3        1 MOL1         0.1053
      93    H44     22.887911   19.473741   22.919753 H          1 MOL1         0.0783
      94    O23     23.958922   20.725023   24.183041 O.3        1 MOL1        -0.5519
      95    H45     23.872928   20.154391   24.979072 H          1 MOL1         0.3769
      96    C28     24.378594   20.520414   21.779452 C.3        1 MOL1         0.1018
      97    H46     25.288804   21.096002   21.994320 H          1 MOL1         0.0783
      98    C29     24.630881   19.516578   20.618426 C.3        1 MOL1         0.1043
      99    H47     23.648781   19.181307   20.268681 H          1 MOL1         0.0783
     100    O24     25.388703   18.359543   21.064989 O.3        1 MOL1        -0.3740
     101    C30     25.358898   20.145687   19.406546 C.3        1 MOL1         0.0138
     102    H48     24.671007   20.844094   18.910810 H          1 MOL1         0.0794
     103    H49     25.592821   19.351891   18.684465 H          1 MOL1         0.0794
     104    O25     26.553835   20.834360   19.795197 O.3        1 MOL1        -0.5486
     105    H50     27.000734   21.141268   18.976227 H          1 MOL1         0.3769
     106    C31     21.291947   13.897884   20.675661 C.3        1 MOL1         0.2972
     107    H51     20.933075   12.961028   20.230099 H          1 MOL1         0.0751
     108    O26     20.229461   14.627651   21.315288 O.3        1 MOL1        -0.3740
     109    C32     22.363361   13.616651   21.757523 C.3        1 MOL1         0.1003
     110    H52     23.180746   13.066924   21.273066 H          1 MOL1         0.0783
     111    O27     21.809889   12.813459   22.813937 O.3        1 MOL1        -0.5519
     112    H53     20.933753   13.208157   23.051134 H          1 MOL1         0.3769
     113    C33     22.948292   14.932272   22.335555 C.3        1 MOL1         0.1053
     114    H54     22.177947   15.406974   22.957462 H          1 MOL1         0.0783
     115    O28     24.087726   14.608488   23.138288 O.3        1 MOL1        -0.5519
     116    H55     23.777793   13.916641   23.762432 H          1 MOL1         0.3769
     117    C34     23.349768   15.936404   21.220375 C.3        1 MOL1         0.1018
     118    H56     24.290552   15.597769   20.767268 H          1 MOL1         0.0783
     119    C35     22.268907   16.063013   20.111900 C.3        1 MOL1         0.1043
     120    H57     21.394790   16.567764   20.539861 H          1 MOL1         0.0783
     121    O29     21.884984   14.741970   19.666312 O.3        1 MOL1        -0.3740
     122    C36     22.703682   16.892365   18.875445 C.3        1 MOL1         0.0138
     123    H58     22.428500   17.939985   19.047727 H          1 MOL1         0.0794
     124    H59     22.122662   16.556378   18.006245 H          1 MOL1         0.0794
     125    O30     24.106390   16.798811   18.593111 O.3        1 MOL1        -0.5486
     126    H60     24.588240   17.191083   19.357078 H          1 MOL1         0.3769
     127    C1      18.566215   20.023939   24.916252 C.3        1 MOL1        -0.1685
     128    H1      17.707799   19.893382   24.244536 H          1 MOL1         0.0832
     129    H2      18.255162   20.767352   25.662565 H          1 MOL1         0.0832
     130    C2      19.777578   20.598145   24.148131 C.3        1 MOL1        -0.1685
     131    H3      19.660112   21.686469   24.067726 H          1 MOL1         0.0832
     132    H4      20.692593   20.468571   24.738771 H          1 MOL1         0.0832
     133    C3      19.964930   20.030729   22.718761 C.3        1 MOL1        -0.1685
     134    H5      20.971605   20.288595   22.373564 H          1 MOL1         0.0832
     135    H6      19.288909   20.560710   22.036322 H          1 MOL1         0.0832
     136    C4      19.730402   18.510102   22.514342 C.3        1 MOL1        -0.1761
     137    H7      18.668751   18.346177   22.292588 H          1 MOL1         0.0832
     138    H8      20.263564   18.206172   21.606552 H          1 MOL1         0.0832
     139    C5      20.134483   17.553147   23.659666 C.3        1 MOL1         0.1218
     140    H9      20.245097   16.553734   23.222370 H          1 MOL1         0.0789
     141    C6      19.052822   17.460689   24.760635 C.3        1 MOL1        -0.1761
     142    H10     18.086646   17.227844   24.294972 H          1 MOL1         0.0832
     143    H11     19.288921   16.599047   25.398386 H          1 MOL1         0.0832
     144    C7      18.882401   18.707518   25.664389 C.3        1 MOL1        -0.1685
     145    H12     18.062157   18.505175   26.366156 H          1 MOL1         0.0832
     146    H13     19.777329   18.841123   26.286751 H          1 MOL1         0.0832
     147    O1      21.374358   17.925909   24.231961 O.3        1 MOL1        -0.5509
     148    H14     21.185122   18.804702   24.612968 H          1 MOL1         0.3779
@<TRIPOS>BOND
    1     1     2    1
    2     1     3    1
    3     1     4    1
    4     4     5    1
    5     4     6    1
    6     6     7    1
    7     4     8    1
    8     8     9    1
    9     8    10    1
   10    10    11    1
   11     8    12    1
   12    12    13    1
   13    12    14    1
   14    14    15    1
   15     1    16    1
   16    14    16    1
   17    14    17    1
   18    17    18    1
   19    17    19    1
   20    17    20    1
   21    20    21    1
   22    22    23    1
   23    22    24    1
   24    22    25    1
   25    25    26    1
   26    25    27    1
   27    27    28    1
   28    25    29    1
   29    29    30    1
   30    29    31    1
   31    31    32    1
   32     3    33    1
   33    29    33    1
   34    33    34    1
   35    33    35    1
   36    35    36    1
   37    22    37    1
   38    35    37    1
   39    35    38    1
   40    38    39    1
   41    38    40    1
   42    38    41    1
   43    41    42    1
   44    43    44    1
   45    43    45    1
   46    43    46    1
   47    46    47    1
   48    46    48    1
   49    48    49    1
   50    46    50    1
   51    50    51    1
   52    50    52    1
   53    52    53    1
   54    24    54    1
   55    50    54    1
   56    54    55    1
   57    54    56    1
   58    56    57    1
   59    43    58    1
   60    56    58    1
   61    56    59    1
   62    59    60    1
   63    59    61    1
   64    59    62    1
   65    62    63    1
   66    64    65    1
   67    64    66    1
   68    64    67    1
   69    67    68    1
   70    67    69    1
   71    69    70    1
   72    67    71    1
   73    71    72    1
   74    71    73    1
   75    73    74    1
   76    45    75    1
   77    71    75    1
   78    75    76    1
   79    75    77    1
   80    77    78    1
   81    64    79    1
   82    77    79    1
   83    77    80    1
   84    80    81    1
   85    80    82    1
   86    80    83    1
   87    83    84    1
   88    85    86    1
   89    85    87    1
   90    85    88    1
   91    88    89    1
   92    88    90    1
   93    90    91    1
   94    88    92    1
   95    92    93    1
   96    92    94    1
   97    94    95    1
   98    66    96    1
   99    92    96    1
  100    96    97    1
  101    96    98    1
  102    98    99    1
  103    85   100    1
  104    98   100    1
  105    98   101    1
  106   101   102    1
  107   101   103    1
  108   101   104    1
  109   104   105    1
  110   106   107    1
  111    12   108    1
  112   106   108    1
  113   106   109    1
  114   109   110    1
  115   109   111    1
  116   111   112    1
  117   109   113    1
  118   113   114    1
  119   113   115    1
  120   115   116    1
  121    87   117    1
  122   113   117    1
  123   117   118    1
  124   117   119    1
  125   119   120    1
  126   106   121    1
  127   119   121    1
  128   119   122    1
  129   122   123    1
  130   122   124    1
  131   122   125    1
  132   125   126    1
  133   127   128    1
  134   127   129    1
  135   127   130    1
  136   130   131    1
  137   130   132    1
  138   130   133    1
  139   133   134    1
  140   133   135    1
  141   133   136    1
  142   136   137    1
  143   136   138    1
  144   136   139    1
  145   139   140    1
  146   139   141    1
  147   141   142    1
  148   141   143    1
  149   127   144    1
  150   141   144    1
  151   144   145    1
  152   144   146    1
  153   139   147    1
  154   147   148    1
@<TRIPOS>SUBSTRUCTURE
       1 MOL1            1 RESIDUE      1      MOL     
       2 MOL1          148 RESIDUE      1      MOL     
@<SCITEGIC>MOL_PROPERTY
feprocess Rank
SciTegic.value.IntegerValue
3

@<SCITEGIC>MOL_PROPERTY
Conf_Id
SciTegic.value.IntegerValue
95

@<SCITEGIC>MOL_PROPERTY
Probability
SciTegic.value.DoubleValue
6.12

@<SCITEGIC>MOL_PROPERTY
G
SciTegic.value.DoubleValue
573.724

@<SCITEGIC>MOL_PROPERTY
E
SciTegic.value.DoubleValue
376.661

@<SCITEGIC>MOL_PROPERTY
-TS
SciTegic.value.DoubleValue
197.064

@<SCITEGIC>MOL_PROPERTY
U+W
SciTegic.value.DoubleValue
246.101

@<SCITEGIC>MOL_PROPERTY
U
SciTegic.value.DoubleValue
284.203

@<SCITEGIC>MOL_PROPERTY
W
SciTegic.value.DoubleValue
-38.102

@<SCITEGIC>MOL_PROPERTY
W(PB)
SciTegic.value.DoubleValue
-44.230

@<SCITEGIC>MOL_PROPERTY
W(SA)
SciTegic.value.DoubleValue
6.128

@<SCITEGIC>MOL_PROPERTY
Valence
SciTegic.value.DoubleValue
157.680

@<SCITEGIC>MOL_PROPERTY
Coulomb
SciTegic.value.DoubleValue
152.419

@<SCITEGIC>MOL_PROPERTY
VdW
SciTegic.value.DoubleValue
-25.897

@<SCITEGIC>MOL_PROPERTY
VdW6
SciTegic.value.DoubleValue
-182.128

@<SCITEGIC>MOL_PROPERTY
VdW12
SciTegic.value.DoubleValue
156.231

@<SCITEGIC>MOL_PROPERTY
Bond
SciTegic.value.DoubleValue
4.652

@<SCITEGIC>MOL_PROPERTY
Angle
SciTegic.value.DoubleValue
14.242

@<SCITEGIC>MOL_PROPERTY
Pdih
SciTegic.value.DoubleValue
138.787

@<SCITEGIC>MOL_PROPERTY
Idih
SciTegic.value.DoubleValue
0.000

@<SCITEGIC>MOL_PROPERTY
Tether
SciTegic.value.DoubleValue
0.000

@<TRIPOS>MOLECULE
CD_guest-5_fast_vm2_rndm.mol2 : feprocess host+ligand conformer 4
         148         154           2
SMALL
USER_CHARGES
 
@<TRIPOS>ATOM
       1    C1      16.133868   15.144958   20.786649 C.3        1 MOL1         0.2972
       2    H1      15.110740   14.936185   20.449201 H          1 MOL1         0.0751
       3    O1      16.262586   16.488763   21.287461 O.3        1 MOL1        -0.3740
       4    C2      16.505906   14.197611   21.954621 C.3        1 MOL1         0.1003
       5    H2      16.421167   13.165814   21.589560 H          1 MOL1         0.0783
       6    O2      15.603420   14.393292   23.055067 O.3        1 MOL1        -0.5519
       7    H3      15.392478   15.358369   23.076995 H          1 MOL1         0.3769
       8    C3      17.966252   14.431450   22.410686 C.3        1 MOL1         0.1053
       9    H4      18.026764   15.428590   22.865852 H          1 MOL1         0.0783
      10    O3      18.333983   13.439981   23.374646 O.3        1 MOL1        -0.5519
      11    H5      17.570604   13.389599   23.992560 H          1 MOL1         0.3769
      12    C4      18.933567   14.388578   21.203210 C.3        1 MOL1         0.1018
      13    H6      19.011771   13.353100   20.846359 H          1 MOL1         0.0783
      14    C5      18.454662   15.292339   20.036753 C.3        1 MOL1         0.1043
      15    H7      18.501702   16.336562   20.369533 H          1 MOL1         0.0783
      16    O4      17.082299   14.954633   19.711628 O.3        1 MOL1        -0.3740
      17    C6      19.325178   15.196610   18.755720 C.3        1 MOL1         0.0138
      18    H8      20.121221   15.949418   18.824199 H          1 MOL1         0.0794
      19    H9      18.707374   15.464766   17.888601 H          1 MOL1         0.0794
      20    O5      19.910327   13.903149   18.560589 O.3        1 MOL1        -0.5486
      21    H10     20.626974   13.805656   19.229937 H          1 MOL1         0.3769
      22    C7      14.819300   20.353747   20.752609 C.3        1 MOL1         0.2972
      23    H11     14.240954   21.244781   20.476128 H          1 MOL1         0.0751
      24    O6      16.101148   20.700059   21.310419 O.3        1 MOL1        -0.3740
      25    C8      14.057241   19.493019   21.792842 C.3        1 MOL1         0.1003
      26    H12     13.108052   19.186940   21.334200 H          1 MOL1         0.0783
      27    O7      13.784563   20.241596   22.988489 O.3        1 MOL1        -0.5519
      28    H13     14.645324   20.616486   23.305776 H          1 MOL1         0.3769
      29    C9      14.861486   18.214183   22.130971 C.3        1 MOL1         0.1053
      30    H14     15.773373   18.520234   22.660694 H          1 MOL1         0.0783
      31    O8      14.078102   17.360609   22.972566 O.3        1 MOL1        -0.5519
      32    H15     13.702551   17.952466   23.661335 H          1 MOL1         0.3769
      33    C10     15.282234   17.448044   20.851077 C.3        1 MOL1         0.1018
      34    H16     14.390126   16.964345   20.432295 H          1 MOL1         0.0783
      35    C11     15.923271   18.390870   19.789938 C.3        1 MOL1         0.1043
      36    H17     16.891077   18.736477   20.174793 H          1 MOL1         0.0783
      37    O9      15.054558   19.532652   19.588975 O.3        1 MOL1        -0.3740
      38    C12     16.199178   17.752950   18.404796 C.3        1 MOL1         0.0138
      39    H18     17.195497   17.295203   18.423785 H          1 MOL1         0.0794
      40    H19     16.235745   18.553935   17.654395 H          1 MOL1         0.0794
      41    O10     15.226278   16.773216   18.027129 O.3        1 MOL1        -0.5486
      42    H20     15.552467   15.910816   18.369120 H          1 MOL1         0.3769
      43    C13     18.551911   23.878498   22.237833 C.3        1 MOL1         0.2972
      44    H21     18.986104   24.851647   22.500892 H          1 MOL1         0.0751
      45    O11     19.582435   22.912195   21.942991 O.3        1 MOL1        -0.3740
      46    C14     17.702655   23.348620   23.419527 C.3        1 MOL1         0.1003
      47    H22     16.901186   24.075072   23.606946 H          1 MOL1         0.0783
      48    O12     18.511006   23.215973   24.597548 O.3        1 MOL1        -0.5519
      49    H23     19.400114   22.937743   24.287627 H          1 MOL1         0.3769
      50    C15     17.050748   21.994184   23.065337 C.3        1 MOL1         0.1053
      51    H24     17.850252   21.252123   22.956329 H          1 MOL1         0.0783
      52    O13     16.166124   21.597586   24.118251 O.3        1 MOL1        -0.5519
      53    H25     16.671357   21.753269   24.947054 H          1 MOL1         0.3769
      54    C16     16.278576   22.065534   21.728099 C.3        1 MOL1         0.1018
      55    H26     15.321809   22.577050   21.898862 H          1 MOL1         0.0783
      56    C17     17.084238   22.774323   20.604358 C.3        1 MOL1         0.1043
      57    H27     17.873474   22.081963   20.296688 H          1 MOL1         0.0783
      58    O14     17.695609   24.000737   21.081422 O.3        1 MOL1        -0.3740
      59    C18     16.242756   23.102680   19.347298 C.3        1 MOL1         0.0138
      60    H28     16.009779   22.163772   18.827093 H          1 MOL1         0.0794
      61    H29     16.851052   23.709338   18.663187 H          1 MOL1         0.0794
      62    O15     15.029880   23.790524   19.676860 O.3        1 MOL1        -0.5486
      63    H30     14.589558   24.038792   18.834763 H          1 MOL1         0.3769
      64    C19     23.594016   22.778016   20.812946 C.3        1 MOL1         0.2972
      65    H31     24.581174   22.953559   20.366255 H          1 MOL1         0.0751
      66    O16     23.554945   21.539015   21.547507 O.3        1 MOL1        -0.3740
      67    C20     23.246178   23.902925   21.818464 C.3        1 MOL1         0.1003
      68    H32     23.269865   24.855187   21.272809 H          1 MOL1         0.0783
      69    O17     24.214465   23.931254   22.879229 O.3        1 MOL1        -0.5519
      70    H33     24.369242   22.990699   23.136675 H          1 MOL1         0.3769
      71    C21     21.823092   23.716357   22.406190 C.3        1 MOL1         0.1053
      72    H34     21.848971   22.849422   23.077192 H          1 MOL1         0.0783
      73    O18     21.473760   24.884787   23.153722 O.3        1 MOL1        -0.5519
      74    H35     22.250458   25.068060   23.727131 H          1 MOL1         0.3769
      75    C22     20.762451   23.444289   21.303378 C.3        1 MOL1         0.1018
      76    H36     20.549991   24.388518   20.785154 H          1 MOL1         0.0783
      77    C23     21.247071   22.395648   20.262301 C.3        1 MOL1         0.1043
      78    H37     21.295480   21.413879   20.747235 H          1 MOL1         0.0783
      79    O19     22.565441   22.766261   19.801969 O.3        1 MOL1        -0.3740
      80    C24     20.332139   22.234322   19.022415 C.3        1 MOL1         0.0138
      81    H38     19.577443   21.470737   19.246435 H          1 MOL1         0.0794
      82    H39     20.934186   21.839740   18.193137 H          1 MOL1         0.0794
      83    O20     19.696539   23.457496   18.627101 O.3        1 MOL1        -0.5486
      84    H40     19.127019   23.751384   19.373594 H          1 MOL1         0.3769
      85    C25     25.043559   17.663916   21.335239 C.3        1 MOL1         0.2972
      86    H41     25.671520   16.774855   21.194462 H          1 MOL1         0.0751
      87    O21     23.673920   17.309194   21.627701 O.3        1 MOL1        -0.3740
      88    C26     25.589321   18.530290   22.496182 C.3        1 MOL1         0.1003
      89    H42     26.611701   18.828450   22.229854 H          1 MOL1         0.0783
      90    O22     25.622322   17.790875   23.727538 O.3        1 MOL1        -0.5519
      91    H43     24.763358   17.303031   23.807891 H          1 MOL1         0.3769
      92    C27     24.747313   19.816847   22.655966 C.3        1 MOL1         0.1053
      93    H44     23.741150   19.524104   22.981225 H          1 MOL1         0.0783
      94    O23     25.350488   20.658804   23.645291 O.3        1 MOL1        -0.5519
      95    H45     25.564653   20.059041   24.393696 H          1 MOL1         0.3769
      96    C28     24.614522   20.588392   21.318428 C.3        1 MOL1         0.1018
      97    H46     25.569060   21.092855   21.120013 H          1 MOL1         0.0783
      98    C29     24.241029   19.653059   20.125751 C.3        1 MOL1         0.1043
      99    H47     23.191684   19.354091   20.233107 H          1 MOL1         0.0783
     100    O24     25.074399   18.468797   20.141137 O.3        1 MOL1        -0.3740
     101    C30     24.406571   20.290382   18.723695 C.3        1 MOL1         0.0138
     102    H48     23.556498   20.952988   18.527530 H          1 MOL1         0.0794
     103    H49     24.359532   19.490321   17.972787 H          1 MOL1         0.0794
     104    O25     25.636927   21.014940   18.594716 O.3        1 MOL1        -0.5486
     105    H50     25.694646   21.339479   17.669808 H          1 MOL1         0.3769
     106    C31     21.238163   13.934480   21.848460 C.3        1 MOL1         0.2972
     107    H51     20.836824   12.914921   21.915344 H          1 MOL1         0.0751
     108    O26     20.197233   14.905225   21.647531 O.3        1 MOL1        -0.3740
     109    C32     21.983620   14.297454   23.155590 C.3        1 MOL1         0.1003
     110    H52     22.817900   13.593197   23.269846 H          1 MOL1         0.0783
     111    O27     21.109491   14.187228   24.290730 O.3        1 MOL1        -0.5519
     112    H53     20.186739   14.122727   23.940751 H          1 MOL1         0.3769
     113    C33     22.566280   15.724874   23.063997 C.3        1 MOL1         0.1053
     114    H54     21.725950   16.424746   23.004152 H          1 MOL1         0.0783
     115    O28     23.346494   15.995112   24.231983 O.3        1 MOL1        -0.5519
     116    H55     22.789637   15.684123   24.980504 H          1 MOL1         0.3769
     117    C34     23.430174   15.894536   21.792606 C.3        1 MOL1         0.1018
     118    H56     24.360685   15.330500   21.940611 H          1 MOL1         0.0783
     119    C35     22.705937   15.381296   20.515736 C.3        1 MOL1         0.1043
     120    H57     21.888187   16.078061   20.290447 H          1 MOL1         0.0783
     121    O29     22.159074   14.054261   20.743223 O.3        1 MOL1        -0.3740
     122    C36     23.620029   15.321807   19.268763 C.3        1 MOL1         0.0138
     123    H58     23.842060   16.349075   18.949900 H          1 MOL1         0.0794
     124    H59     23.067825   14.839354   18.451134 H          1 MOL1         0.0794
     125    O30     24.841690   14.618693   19.529157 O.3        1 MOL1        -0.5486
     126    H60     25.346489   14.578493   18.687941 H          1 MOL1         0.3769
     127    C1      19.279138   17.805978   25.235906 C.3        1 MOL1        -0.1685
     128    H1      18.645418   17.619858   26.113330 H          1 MOL1         0.0832
     129    H2      19.746398   16.841706   24.992746 H          1 MOL1         0.0832
     130    C2      20.367806   18.823672   25.639217 C.3        1 MOL1        -0.1685
     131    H3      19.890771   19.732188   26.031107 H          1 MOL1         0.0832
     132    H4      20.941416   18.399463   26.474253 H          1 MOL1         0.0832
     133    C3      21.353461   19.204750   24.512300 C.3        1 MOL1        -0.1685
     134    H5      21.821369   18.312551   24.086809 H          1 MOL1         0.0832
     135    H6      22.169106   19.782971   24.967281 H          1 MOL1         0.0832
     136    C4      20.713303   20.074313   23.406444 C.3        1 MOL1        -0.1761
     137    H7      20.026345   20.793256   23.867428 H          1 MOL1         0.0832
     138    H8      21.503347   20.676838   22.948526 H          1 MOL1         0.0832
     139    C5      19.976878   19.325076   22.272208 C.3        1 MOL1         0.1218
     140    H9      19.341794   20.062908   21.762771 H          1 MOL1         0.0789
     141    C6      19.072182   18.146752   22.692584 C.3        1 MOL1        -0.1761
     142    H10     18.299247   18.048404   21.924012 H          1 MOL1         0.0832
     143    H11     19.641407   17.212831   22.662483 H          1 MOL1         0.0832
     144    C7      18.375179   18.260040   24.067562 C.3        1 MOL1        -0.1685
     145    H12     17.994424   19.274994   24.237482 H          1 MOL1         0.0832
     146    H13     17.495382   17.602828   24.054863 H          1 MOL1         0.0832
     147    O1      20.933929   18.841449   21.338031 O.3        1 MOL1        -0.5509
     148    H14     21.605533   18.350714   21.853357 H          1 MOL1         0.3779
@<TRIPOS>BOND
    1     1     2    1
    2     1     3    1
    3     1     4    1
    4     4     5    1
    5     4     6    1
    6     6     7    1
    7     4     8    1
    8     8     9    1
    9     8    10    1
   10    10    11    1
   11     8    12    1
   12    12    13    1
   13    12    14    1
   14    14    15    1
   15     1    16    1
   16    14    16    1
   17    14    17    1
   18    17    18    1
   19    17    19    1
   20    17    20    1
   21    20    21    1
   22    22    23    1
   23    22    24    1
   24    22    25    1
   25    25    26    1
   26    25    27    1
   27    27    28    1
   28    25    29    1
   29    29    30    1
   30    29    31    1
   31    31    32    1
   32     3    33    1
   33    29    33    1
   34    33    34    1
   35    33    35    1
   36    35    36    1
   37    22    37    1
   38    35    37    1
   39    35    38    1
   40    38    39    1
   41    38    40    1
   42    38    41    1
   43    41    42    1
   44    43    44    1
   45    43    45    1
   46    43    46    1
   47    46    47    1
   48    46    48    1
   49    48    49    1
   50    46    50    1
   51    50    51    1
   52    50    52    1
   53    52    53    1
   54    24    54    1
   55    50    54    1
   56    54    55    1
   57    54    56    1
   58    56    57    1
   59    43    58    1
   60    56    58    1
   61    56    59    1
   62    59    60    1
   63    59    61    1
   64    59    62    1
   65    62    63    1
   66    64    65    1
   67    64    66    1
   68    64    67    1
   69    67    68    1
   70    67    69    1
   71    69    70    1
   72    67    71    1
   73    71    72    1
   74    71    73    1
   75    73    74    1
   76    45    75    1
   77    71    75    1
   78    75    76    1
   79    75    77    1
   80    77    78    1
   81    64    79    1
   82    77    79    1
   83    77    80    1
   84    80    81    1
   85    80    82    1
   86    80    83    1
   87    83    84    1
   88    85    86    1
   89    85    87    1
   90    85    88    1
   91    88    89    1
   92    88    90    1
   93    90    91    1
   94    88    92    1
   95    92    93    1
   96    92    94    1
   97    94    95    1
   98    66    96    1
   99    92    96    1
  100    96    97    1
  101    96    98    1
  102    98    99    1
  103    85   100    1
  104    98   100    1
  105    98   101    1
  106   101   102    1
  107   101   103    1
  108   101   104    1
  109   104   105    1
  110   106   107    1
  111    12   108    1
  112   106   108    1
  113   106   109    1
  114   109   110    1
  115   109   111    1
  116   111   112    1
  117   109   113    1
  118   113   114    1
  119   113   115    1
  120   115   116    1
  121    87   117    1
  122   113   117    1
  123   117   118    1
  124   117   119    1
  125   119   120    1
  126   106   121    1
  127   119   121    1
  128   119   122    1
  129   122   123    1
  130   122   124    1
  131   122   125    1
  132   125   126    1
  133   127   128    1
  134   127   129    1
  135   127   130    1
  136   130   131    1
  137   130   132    1
  138   130   133    1
  139   133   134    1
  140   133   135    1
  141   133   136    1
  142   136   137    1
  143   136   138    1
  144   136   139    1
  145   139   140    1
  146   139   141    1
  147   141   142    1
  148   141   143    1
  149   127   144    1
  150   141   144    1
  151   144   145    1
  152   144   146    1
  153   139   147    1
  154   147   148    1
@<TRIPOS>SUBSTRUCTURE
       1 MOL1            1 RESIDUE      1      MOL     
       2 MOL1          148 RESIDUE      1      MOL     
@<SCITEGIC>MOL_PROPERTY
feprocess Rank
SciTegic.value.IntegerValue
4

@<SCITEGIC>MOL_PROPERTY
Conf_Id
SciTegic.value.IntegerValue
726

@<SCITEGIC>MOL_PROPERTY
Probability
SciTegic.value.DoubleValue
6.04

@<SCITEGIC>MOL_PROPERTY
G
SciTegic.value.DoubleValue
573.732

@<SCITEGIC>MOL_PROPERTY
E
SciTegic.value.DoubleValue
378.081

@<SCITEGIC>MOL_PROPERTY
-TS
SciTegic.value.DoubleValue
195.652

@<SCITEGIC>MOL_PROPERTY
U+W
SciTegic.value.DoubleValue
247.521

@<SCITEGIC>MOL_PROPERTY
U
SciTegic.value.DoubleValue
282.598

@<SCITEGIC>MOL_PROPERTY
W
SciTegic.value.DoubleValue
-35.077

@<SCITEGIC>MOL_PROPERTY
W(PB)
SciTegic.value.DoubleValue
-41.145

@<SCITEGIC>MOL_PROPERTY
W(SA)
SciTegic.value.DoubleValue
6.068

@<SCITEGIC>MOL_PROPERTY
Valence
SciTegic.value.DoubleValue
157.378

@<SCITEGIC>MOL_PROPERTY
Coulomb
SciTegic.value.DoubleValue
153.264

@<SCITEGIC>MOL_PROPERTY
VdW
SciTegic.value.DoubleValue
-28.044

@<SCITEGIC>MOL_PROPERTY
VdW6
SciTegic.value.DoubleValue
-184.250

@<SCITEGIC>MOL_PROPERTY
VdW12
SciTegic.value.DoubleValue
156.206

@<SCITEGIC>MOL_PROPERTY
Bond
SciTegic.value.DoubleValue
4.496

@<SCITEGIC>MOL_PROPERTY
Angle
SciTegic.value.DoubleValue
14.143

@<SCITEGIC>MOL_PROPERTY
Pdih
SciTegic.value.DoubleValue
138.739

@<SCITEGIC>MOL_PROPERTY
Idih
SciTegic.value.DoubleValue
0.000

@<SCITEGIC>MOL_PROPERTY
Tether
SciTegic.value.DoubleValue
0.000

@<TRIPOS>MOLECULE
CD_guest-5_fast_vm2_rndm.mol2 : feprocess host+ligand conformer 5
         148         154           2
SMALL
USER_CHARGES
 
@<TRIPOS>ATOM
       1    C1      16.171017   15.252848   20.703112 C.3        1 MOL1         0.2972
       2    H1      15.179282   15.044461   20.281234 H          1 MOL1         0.0751
       3    O1      16.212510   16.544206   21.340307 O.3        1 MOL1        -0.3740
       4    C2      16.527143   14.199782   21.786001 C.3        1 MOL1         0.1003
       5    H2      16.456881   13.208303   21.320162 H          1 MOL1         0.0783
       6    O2      15.599617   14.282288   22.880213 O.3        1 MOL1        -0.5519
       7    H3      15.457222   15.244090   23.054987 H          1 MOL1         0.3769
       8    C3      17.976457   14.386873   22.303399 C.3        1 MOL1         0.1053
       9    H4      18.015500   15.321936   22.875042 H          1 MOL1         0.0783
      10    O3      18.334271   13.290607   23.151554 O.3        1 MOL1        -0.5519
      11    H5      17.569665   13.173617   23.757930 H          1 MOL1         0.3769
      12    C4      18.980494   14.498175   21.131640 C.3        1 MOL1         0.1018
      13    H6      19.054320   13.520084   20.637991 H          1 MOL1         0.0783
      14    C5      18.520856   15.554285   20.093318 C.3        1 MOL1         0.1043
      15    H7      18.512719   16.539125   20.575421 H          1 MOL1         0.0783
      16    O4      17.180861   15.213938   19.670693 O.3        1 MOL1        -0.3740
      17    C6      19.416802   15.670028   18.833679 C.3        1 MOL1         0.0138
      18    H8      20.226200   16.379081   19.045588 H          1 MOL1         0.0794
      19    H9      18.820247   16.105075   18.020860 H          1 MOL1         0.0794
      20    O5      19.972028   14.417032   18.417766 O.3        1 MOL1        -0.5486
      21    H10     20.716085   14.214318   19.031478 H          1 MOL1         0.3769
      22    C7      14.586789   20.323828   20.987203 C.3        1 MOL1         0.2972
      23    H11     13.975304   21.220579   20.823718 H          1 MOL1         0.0751
      24    O6      15.977001   20.656090   21.183733 O.3        1 MOL1        -0.3740
      25    C8      14.074348   19.509441   22.202368 C.3        1 MOL1         0.1003
      26    H12     13.058731   19.168935   21.962014 H          1 MOL1         0.0783
      27    O7      14.028269   20.305683   23.396026 O.3        1 MOL1        -0.5519
      28    H13     14.946736   20.638370   23.562434 H          1 MOL1         0.3769
      29    C9      14.959442   18.258891   22.412883 C.3        1 MOL1         0.1053
      30    H14     15.960260   18.605390   22.700150 H          1 MOL1         0.0783
      31    O8      14.409413   17.448028   23.457540 O.3        1 MOL1        -0.5519
      32    H15     14.193467   18.074373   24.183137 H          1 MOL1         0.3769
      33    C10     15.087776   17.419224   21.115285 C.3        1 MOL1         0.1018
      34    H16     14.156318   16.851877   20.989978 H          1 MOL1         0.0783
      35    C11     15.359733   18.288918   19.847769 C.3        1 MOL1         0.1043
      36    H17     16.407700   18.615731   19.874698 H          1 MOL1         0.0783
      37    O9      14.498991   19.455954   19.840738 O.3        1 MOL1        -0.3740
      38    C12     15.133933   17.554245   18.502759 C.3        1 MOL1         0.0138
      39    H18     15.978290   16.880800   18.315849 H          1 MOL1         0.0794
      40    H19     15.139804   18.299269   17.695841 H          1 MOL1         0.0794
      41    O10     13.904790   16.816924   18.484267 O.3        1 MOL1        -0.5486
      42    H20     13.801622   16.433967   17.585836 H          1 MOL1         0.3769
      43    C13     18.574851   23.818646   21.807927 C.3        1 MOL1         0.2972
      44    H21     19.041405   24.787775   22.024177 H          1 MOL1         0.0751
      45    O11     19.516307   22.891413   21.231455 O.3        1 MOL1        -0.3740
      46    C14     17.990849   23.198478   23.103626 C.3        1 MOL1         0.1003
      47    H22     17.239259   23.901431   23.485856 H          1 MOL1         0.0783
      48    O12     19.005907   23.007321   24.102544 O.3        1 MOL1        -0.5519
      49    H23     19.769139   23.580932   23.852529 H          1 MOL1         0.3769
      50    C15     17.284401   21.855613   22.803563 C.3        1 MOL1         0.1053
      51    H24     18.045138   21.129403   22.495550 H          1 MOL1         0.0783
      52    O13     16.638592   21.396576   23.994345 O.3        1 MOL1        -0.5519
      53    H25     17.317148   21.511556   24.697175 H          1 MOL1         0.3769
      54    C16     16.260690   21.990995   21.649122 C.3        1 MOL1         0.1018
      55    H26     15.363660   22.493119   22.035462 H          1 MOL1         0.0783
      56    C17     16.831043   22.777432   20.434207 C.3        1 MOL1         0.1043
      57    H27     17.566809   22.136694   19.930813 H          1 MOL1         0.0783
      58    O14     17.487428   23.992218   20.875717 O.3        1 MOL1        -0.3740
      59    C18     15.757729   23.154741   19.384889 C.3        1 MOL1         0.0138
      60    H28     15.439095   22.239240   18.868163 H          1 MOL1         0.0794
      61    H29     16.217939   23.809868   18.633127 H          1 MOL1         0.0794
      62    O15     14.622241   23.797319   19.978418 O.3        1 MOL1        -0.5486
      63    H30     14.024516   24.077067   19.250971 H          1 MOL1         0.3769
      64    C19     23.657705   22.607710   20.741786 C.3        1 MOL1         0.2972
      65    H31     24.702207   22.772745   20.447517 H          1 MOL1         0.0751
      66    O16     23.464627   21.304514   21.324099 O.3        1 MOL1        -0.3740
      67    C20     23.205674   23.657344   21.788425 C.3        1 MOL1         0.1003
      68    H32     23.310503   24.646894   21.324819 H          1 MOL1         0.0783
      69    O17     24.027730   23.601085   22.965576 O.3        1 MOL1        -0.5519
      70    H33     24.131603   22.646594   23.211626 H          1 MOL1         0.3769
      71    C21     21.714057   23.462209   22.162179 C.3        1 MOL1         0.1053
      72    H34     21.616534   22.503797   22.684989 H          1 MOL1         0.0783
      73    O18     21.318261   24.528527   23.031728 O.3        1 MOL1        -0.5519
      74    H35     22.085263   24.657035   23.635609 H          1 MOL1         0.3769
      75    C22     20.819169   23.408357   20.891704 C.3        1 MOL1         0.1018
      76    H36     20.746976   24.414415   20.459234 H          1 MOL1         0.0783
      77    C23     21.393543   22.433088   19.828075 C.3        1 MOL1         0.1043
      78    H37     21.302827   21.409760   20.214504 H          1 MOL1         0.0783
      79    O19     22.791019   22.728347   19.592923 O.3        1 MOL1        -0.3740
      80    C24     20.639256   22.471101   18.475518 C.3        1 MOL1         0.0138
      81    H38     19.681682   21.947218   18.596586 H          1 MOL1         0.0794
      82    H39     21.223194   21.909550   17.734336 H          1 MOL1         0.0794
      83    O20     20.402143   23.804777   18.008496 O.3        1 MOL1        -0.5486
      84    H40     19.711967   24.198270   18.584911 H          1 MOL1         0.3769
      85    C25     25.221769   17.653078   21.985933 C.3        1 MOL1         0.2972
      86    H41     25.872066   16.780842   22.129836 H          1 MOL1         0.0751
      87    O21     23.825339   17.292032   21.998204 O.3        1 MOL1        -0.3740
      88    C26     25.461643   18.679637   23.116905 C.3        1 MOL1         0.1003
      89    H42     26.496044   19.037362   23.033774 H          1 MOL1         0.0783
      90    O22     25.275355   18.063392   24.400342 O.3        1 MOL1        -0.5519
      91    H43     24.495101   17.462148   24.329126 H          1 MOL1         0.3769
      92    C27     24.518267   19.889703   22.935026 C.3        1 MOL1         0.1053
      93    H44     23.493967   19.527035   23.055123 H          1 MOL1         0.0783
      94    O23     24.788366   20.882618   23.929028 O.3        1 MOL1        -0.5519
      95    H45     24.675395   20.411372   24.786423 H          1 MOL1         0.3769
      96    C28     24.643438   20.498127   21.516138 C.3        1 MOL1         0.1018
      97    H46     25.565376   21.092975   21.475047 H          1 MOL1         0.0783
      98    C29     24.643259   19.421570   20.390820 C.3        1 MOL1         0.1043
      99    H47     23.614301   19.054555   20.285268 H          1 MOL1         0.0783
     100    O24     25.507165   18.304636   20.731068 O.3        1 MOL1        -0.3740
     101    C30     25.077188   19.970921   19.010966 C.3        1 MOL1         0.0138
     102    H48     24.285776   20.632150   18.633271 H          1 MOL1         0.0794
     103    H49     25.161790   19.130228   18.309348 H          1 MOL1         0.0794
     104    O25     26.316300   20.687263   19.081674 O.3        1 MOL1        -0.5486
     105    H50     26.559545   20.952477   18.167954 H          1 MOL1         0.3769
     106    C31     21.320060   13.975884   21.568602 C.3        1 MOL1         0.2972
     107    H51     20.948258   12.954903   21.413012 H          1 MOL1         0.0751
     108    O26     20.237603   14.918391   21.692308 O.3        1 MOL1        -0.3740
     109    C32     22.151144   14.032020   22.874752 C.3        1 MOL1         0.1003
     110    H52     22.974305   13.312480   22.776512 H          1 MOL1         0.0783
     111    O27     21.335569   13.671568   24.001472 O.3        1 MOL1        -0.5519
     112    H53     20.394826   13.804129   23.727766 H          1 MOL1         0.3769
     113    C33     22.763616   15.436700   23.078466 C.3        1 MOL1         0.1053
     114    H54     21.940644   16.139078   23.252322 H          1 MOL1         0.0783
     115    O28     23.638518   15.423567   24.210286 O.3        1 MOL1        -0.5519
     116    H55     23.134834   14.959411   24.915166 H          1 MOL1         0.3769
     117    C34     23.527630   15.896986   21.814849 C.3        1 MOL1         0.1018
     118    H56     24.434366   15.287082   21.708451 H          1 MOL1         0.0783
     119    C35     22.652482   15.753398   20.540753 C.3        1 MOL1         0.1043
     120    H57     21.808842   16.448345   20.634588 H          1 MOL1         0.0783
     121    O29     22.150649   14.394373   20.461723 O.3        1 MOL1        -0.3740
     122    C36     23.372076   16.095789   19.210392 C.3        1 MOL1         0.0138
     123    H58     23.266645   17.171888   19.024330 H          1 MOL1         0.0794
     124    H59     22.855614   15.580147   18.389696 H          1 MOL1         0.0794
     125    O30     24.760801   15.747245   19.212718 O.3        1 MOL1        -0.5486
     126    H60     25.235471   16.474312   19.678040 H          1 MOL1         0.3769
     127    C1      18.724909   18.123013   23.600974 C.3        1 MOL1        -0.1685
     128    H1      17.877781   17.549694   23.208790 H          1 MOL1         0.0832
     129    H2      18.295092   19.041094   24.021974 H          1 MOL1         0.0832
     130    C2      19.668263   18.441610   22.417808 C.3        1 MOL1        -0.1685
     131    H3      20.271505   17.554004   22.192703 H          1 MOL1         0.0832
     132    H4      19.060669   18.625484   21.521781 H          1 MOL1         0.0832
     133    C3      20.605442   19.656521   22.612101 C.3        1 MOL1        -0.1685
     134    H5      20.125423   20.545963   22.192601 H          1 MOL1         0.0832
     135    H6      21.504492   19.496072   22.004343 H          1 MOL1         0.0832
     136    C4      21.014553   19.982180   24.068098 C.3        1 MOL1        -0.1761
     137    H7      21.796512   20.750630   24.039908 H          1 MOL1         0.0832
     138    H8      20.168912   20.443436   24.593817 H          1 MOL1         0.0832
     139    C5      21.525861   18.765012   24.865271 C.3        1 MOL1         0.1218
     140    H9      22.031979   18.071953   24.182223 H          1 MOL1         0.0789
     141    C6      20.393504   18.024301   25.608879 C.3        1 MOL1        -0.1761
     142    H10     20.843950   17.301161   26.301473 H          1 MOL1         0.0832
     143    H11     19.840281   18.739877   26.230662 H          1 MOL1         0.0832
     144    C7      19.393396   17.266374   24.702937 C.3        1 MOL1        -0.1685
     145    H12     19.891853   16.402490   24.245251 H          1 MOL1         0.0832
     146    H13     18.605003   16.847949   25.342925 H          1 MOL1         0.0832
     147    O1      22.466728   19.223757   25.826270 O.3        1 MOL1        -0.5509
     148    H14     21.983708   19.844124   26.406564 H          1 MOL1         0.3779
@<TRIPOS>BOND
    1     1     2    1
    2     1     3    1
    3     1     4    1
    4     4     5    1
    5     4     6    1
    6     6     7    1
    7     4     8    1
    8     8     9    1
    9     8    10    1
   10    10    11    1
   11     8    12    1
   12    12    13    1
   13    12    14    1
   14    14    15    1
   15     1    16    1
   16    14    16    1
   17    14    17    1
   18    17    18    1
   19    17    19    1
   20    17    20    1
   21    20    21    1
   22    22    23    1
   23    22    24    1
   24    22    25    1
   25    25    26    1
   26    25    27    1
   27    27    28    1
   28    25    29    1
   29    29    30    1
   30    29    31    1
   31    31    32    1
   32     3    33    1
   33    29    33    1
   34    33    34    1
   35    33    35    1
   36    35    36    1
   37    22    37    1
   38    35    37    1
   39    35    38    1
   40    38    39    1
   41    38    40    1
   42    38    41    1
   43    41    42    1
   44    43    44    1
   45    43    45    1
   46    43    46    1
   47    46    47    1
   48    46    48    1
   49    48    49    1
   50    46    50    1
   51    50    51    1
   52    50    52    1
   53    52    53    1
   54    24    54    1
   55    50    54    1
   56    54    55    1
   57    54    56    1
   58    56    57    1
   59    43    58    1
   60    56    58    1
   61    56    59    1
   62    59    60    1
   63    59    61    1
   64    59    62    1
   65    62    63    1
   66    64    65    1
   67    64    66    1
   68    64    67    1
   69    67    68    1
   70    67    69    1
   71    69    70    1
   72    67    71    1
   73    71    72    1
   74    71    73    1
   75    73    74    1
   76    45    75    1
   77    71    75    1
   78    75    76    1
   79    75    77    1
   80    77    78    1
   81    64    79    1
   82    77    79    1
   83    77    80    1
   84    80    81    1
   85    80    82    1
   86    80    83    1
   87    83    84    1
   88    85    86    1
   89    85    87    1
   90    85    88    1
   91    88    89    1
   92    88    90    1
   93    90    91    1
   94    88    92    1
   95    92    93    1
   96    92    94    1
   97    94    95    1
   98    66    96    1
   99    92    96    1
  100    96    97    1
  101    96    98    1
  102    98    99    1
  103    85   100    1
  104    98   100    1
  105    98   101    1
  106   101   102    1
  107   101   103    1
  108   101   104    1
  109   104   105    1
  110   106   107    1
  111    12   108    1
  112   106   108    1
  113   106   109    1
  114   109   110    1
  115   109   111    1
  116   111   112    1
  117   109   113    1
  118   113   114    1
  119   113   115    1
  120   115   116    1
  121    87   117    1
  122   113   117    1
  123   117   118    1
  124   117   119    1
  125   119   120    1
  126   106   121    1
  127   119   121    1
  128   119   122    1
  129   122   123    1
  130   122   124    1
  131   122   125    1
  132   125   126    1
  133   127   128    1
  134   127   129    1
  135   127   130    1
  136   130   131    1
  137   130   132    1
  138   130   133    1
  139   133   134    1
  140   133   135    1
  141   133   136    1
  142   136   137    1
  143   136   138    1
  144   136   139    1
  145   139   140    1
  146   139   141    1
  147   141   142    1
  148   141   143    1
  149   127   144    1
  150   141   144    1
  151   144   145    1
  152   144   146    1
  153   139   147    1
  154   147   148    1
@<TRIPOS>SUBSTRUCTURE
       1 MOL1            1 RESIDUE      1      MOL     
       2 MOL1          148 RESIDUE      1      MOL     
@<SCITEGIC>MOL_PROPERTY
feprocess Rank
SciTegic.value.IntegerValue
5

@<SCITEGIC>MOL_PROPERTY
Conf_Id
SciTegic.value.IntegerValue
43

@<SCITEGIC>MOL_PROPERTY
Probability
SciTegic.value.DoubleValue
5.32

@<SCITEGIC>MOL_PROPERTY
G
SciTegic.value.DoubleValue
573.809

@<SCITEGIC>MOL_PROPERTY
E
SciTegic.value.DoubleValue
377.761

@<SCITEGIC>MOL_PROPERTY
-TS
SciTegic.value.DoubleValue
196.047

@<SCITEGIC>MOL_PROPERTY
U+W
SciTegic.value.DoubleValue
247.202

@<SCITEGIC>MOL_PROPERTY
U
SciTegic.value.DoubleValue
285.769

@<SCITEGIC>MOL_PROPERTY
W
SciTegic.value.DoubleValue
-38.568

@<SCITEGIC>MOL_PROPERTY
W(PB)
SciTegic.value.DoubleValue
-44.648

@<SCITEGIC>MOL_PROPERTY
W(SA)
SciTegic.value.DoubleValue
6.080

@<SCITEGIC>MOL_PROPERTY
Valence
SciTegic.value.DoubleValue
157.683

@<SCITEGIC>MOL_PROPERTY
Coulomb
SciTegic.value.DoubleValue
153.579

@<SCITEGIC>MOL_PROPERTY
VdW
SciTegic.value.DoubleValue
-25.493

@<SCITEGIC>MOL_PROPERTY
VdW6
SciTegic.value.DoubleValue
-181.928

@<SCITEGIC>MOL_PROPERTY
VdW12
SciTegic.value.DoubleValue
156.435

@<SCITEGIC>MOL_PROPERTY
Bond
SciTegic.value.DoubleValue
4.615

@<SCITEGIC>MOL_PROPERTY
Angle
SciTegic.value.DoubleValue
13.218

@<SCITEGIC>MOL_PROPERTY
Pdih
SciTegic.value.DoubleValue
139.850

@<SCITEGIC>MOL_PROPERTY
Idih
SciTegic.value.DoubleValue
0.000

@<SCITEGIC>MOL_PROPERTY
Tether
SciTegic.value.DoubleValue
0.000

@<TRIPOS>MOLECULE
CD_guest-5_fast_vm2_rndm.mol2 : feprocess host+ligand conformer 6
         148         154           2
SMALL
USER_CHARGES
 
@<TRIPOS>ATOM
       1    C1      16.114450   15.124424   20.856664 C.3        1 MOL1         0.2972
       2    H1      15.082016   14.897767   20.561627 H          1 MOL1         0.0751
       3    O1      16.246265   16.481669   21.320366 O.3        1 MOL1        -0.3740
       4    C2      16.538716   14.206274   22.029847 C.3        1 MOL1         0.1003
       5    H2      16.455831   13.166484   21.687682 H          1 MOL1         0.0783
       6    O2      15.670254   14.411293   23.155484 O.3        1 MOL1        -0.5519
       7    H3      15.433384   15.370321   23.155713 H          1 MOL1         0.3769
       8    C3      18.010164   14.466503   22.433727 C.3        1 MOL1         0.1053
       9    H4      18.069604   15.471933   22.868634 H          1 MOL1         0.0783
      10    O3      18.413844   13.498089   23.407086 O.3        1 MOL1        -0.5519
      11    H5      17.657814   13.438434   24.033899 H          1 MOL1         0.3769
      12    C4      18.941137   14.414347   21.195551 C.3        1 MOL1         0.1018
      13    H6      19.037397   13.372359   20.863456 H          1 MOL1         0.0783
      14    C5      18.404033   15.274623   20.021534 C.3        1 MOL1         0.1043
      15    H7      18.451441   16.329126   20.321122 H          1 MOL1         0.0783
      16    O4      17.025006   14.916310   19.753277 O.3        1 MOL1        -0.3740
      17    C6      19.233118   15.147025   18.716671 C.3        1 MOL1         0.0138
      18    H8      20.064234   15.862774   18.766604 H          1 MOL1         0.0794
      19    H9      18.604324   15.445629   17.867613 H          1 MOL1         0.0794
      20    O5      19.753129   13.828761   18.504349 O.3        1 MOL1        -0.5486
      21    H10     20.453533   13.681260   19.178890 H          1 MOL1         0.3769
      22    C7      14.762646   20.325757   20.765755 C.3        1 MOL1         0.2972
      23    H11     14.178988   21.212233   20.485714 H          1 MOL1         0.0751
      24    O6      16.034162   20.680181   21.342634 O.3        1 MOL1        -0.3740
      25    C8      14.000259   19.461833   21.801708 C.3        1 MOL1         0.1003
      26    H12     13.054741   19.149112   21.340006 H          1 MOL1         0.0783
      27    O7      13.721048   20.214032   22.993960 O.3        1 MOL1        -0.5519
      28    H13     14.569310   20.637735   23.282289 H          1 MOL1         0.3769
      29    C9      14.811708   18.189322   22.147111 C.3        1 MOL1         0.1053
      30    H14     15.714688   18.504185   22.685621 H          1 MOL1         0.0783
      31    O8      14.028273   17.329881   22.982454 O.3        1 MOL1        -0.5519
      32    H15     13.643835   17.918969   23.668710 H          1 MOL1         0.3769
      33    C10     15.254646   17.425302   20.873158 C.3        1 MOL1         0.1018
      34    H16     14.373095   16.927470   20.448678 H          1 MOL1         0.0783
      35    C11     15.890226   18.372797   19.812169 C.3        1 MOL1         0.1043
      36    H17     16.851882   18.731692   20.198778 H          1 MOL1         0.0783
      37    O9      15.011605   19.505008   19.604659 O.3        1 MOL1        -0.3740
      38    C12     16.179733   17.734503   18.429805 C.3        1 MOL1         0.0138
      39    H18     17.189088   17.306611   18.448423 H          1 MOL1         0.0794
      40    H19     16.190555   18.531301   17.674152 H          1 MOL1         0.0794
      41    O10     15.235578   16.723802   18.060972 O.3        1 MOL1        -0.5486
      42    H20     15.570326   15.879347   18.439273 H          1 MOL1         0.3769
      43    C13     18.504283   23.894708   22.106416 C.3        1 MOL1         0.2972
      44    H21     18.940876   24.881859   22.307449 H          1 MOL1         0.0751
      45    O11     19.528398   22.895674   21.929563 O.3        1 MOL1        -0.3740
      46    C14     17.605397   23.472689   23.292491 C.3        1 MOL1         0.1003
      47    H22     16.802232   24.215758   23.381485 H          1 MOL1         0.0783
      48    O12     18.365195   23.446200   24.511022 O.3        1 MOL1        -0.5519
      49    H23     19.315058   23.497588   24.251291 H          1 MOL1         0.3769
      50    C15     16.958913   22.095905   23.020833 C.3        1 MOL1         0.1053
      51    H24     17.758101   21.346136   22.996019 H          1 MOL1         0.0783
      52    O13     16.033735   21.782936   24.067041 O.3        1 MOL1        -0.5519
      53    H25     16.515918   21.990057   24.898470 H          1 MOL1         0.3769
      54    C16     16.237716   22.070264   21.652810 C.3        1 MOL1         0.1018
      55    H26     15.290605   22.618421   21.745245 H          1 MOL1         0.0783
      56    C17     17.102817   22.668148   20.508210 C.3        1 MOL1         0.1043
      57    H27     17.900472   21.947367   20.295986 H          1 MOL1         0.0783
      58    O14     17.698456   23.929100   20.909707 O.3        1 MOL1        -0.3740
      59    C18     16.323091   22.894998   19.190589 C.3        1 MOL1         0.0138
      60    H28     16.101274   21.917238   18.742302 H          1 MOL1         0.0794
      61    H29     16.970423   23.434650   18.486317 H          1 MOL1         0.0794
      62    O15     15.105650   23.620025   19.403920 O.3        1 MOL1        -0.5486
      63    H30     14.704129   23.793272   18.524572 H          1 MOL1         0.3769
      64    C19     23.651501   22.821496   21.089575 C.3        1 MOL1         0.2972
      65    H31     24.645984   23.098523   20.716801 H          1 MOL1         0.0751
      66    O16     23.659858   21.504454   21.675002 O.3        1 MOL1        -0.3740
      67    C20     23.201194   23.803137   22.205302 C.3        1 MOL1         0.1003
      68    H32     23.224609   24.816992   21.785091 H          1 MOL1         0.0783
      69    O17     24.100139   23.726789   23.322487 O.3        1 MOL1        -0.5519
      70    H33     24.305998   22.769418   23.442686 H          1 MOL1         0.3769
      71    C21     21.750950   23.507103   22.669956 C.3        1 MOL1         0.1053
      72    H34     21.750943   22.541103   23.188551 H          1 MOL1         0.0783
      73    O18     21.311918   24.531938   23.567570 O.3        1 MOL1        -0.5519
      74    H35     22.060257   24.666400   24.190646 H          1 MOL1         0.3769
      75    C22     20.790881   23.403778   21.459531 C.3        1 MOL1         0.1018
      76    H36     20.683662   24.398383   21.006186 H          1 MOL1         0.0783
      77    C23     21.342553   22.428615   20.389177 C.3        1 MOL1         0.1043
      78    H37     21.392907   21.421980   20.820094 H          1 MOL1         0.0783
      79    O19     22.671649   22.868756   20.029595 O.3        1 MOL1        -0.3740
      80    C24     20.488507   22.330439   19.100095 C.3        1 MOL1         0.0138
      81    H38     19.727043   21.555014   19.249874 H          1 MOL1         0.0794
      82    H39     21.130659   21.983775   18.279843 H          1 MOL1         0.0794
      83    O20     19.862024   23.570041   18.743782 O.3        1 MOL1        -0.5486
      84    H40     19.211075   23.786433   19.450889 H          1 MOL1         0.3769
      85    C25     25.029487   17.656407   20.973365 C.3        1 MOL1         0.2972
      86    H41     25.597463   16.757306   20.702233 H          1 MOL1         0.0751
      87    O21     23.662315   17.334390   21.312124 O.3        1 MOL1        -0.3740
      88    C26     25.703563   18.392652   22.157487 C.3        1 MOL1         0.1003
      89    H42     26.707280   18.689182   21.826088 H          1 MOL1         0.0783
      90    O22     25.825244   17.544817   23.310242 O.3        1 MOL1        -0.5519
      91    H43     24.914738   17.230375   23.542777 H          1 MOL1         0.3769
      92    C27     24.920952   19.678270   22.507572 C.3        1 MOL1         0.1053
      93    H44     23.940757   19.374560   22.896367 H          1 MOL1         0.0783
      94    O23     25.633636   20.405556   23.514535 O.3        1 MOL1        -0.5519
      95    H45     25.891685   19.733295   24.183196 H          1 MOL1         0.3769
      96    C28     24.694350   20.582804   21.266151 C.3        1 MOL1         0.1018
      97    H46     25.634984   21.107828   21.055951 H          1 MOL1         0.0783
      98    C29     24.234124   19.777884   20.006773 C.3        1 MOL1         0.1043
      99    H47     23.178985   19.505538   20.135544 H          1 MOL1         0.0783
     100    O24     25.021062   18.569821   19.862288 O.3        1 MOL1        -0.3740
     101    C30     24.369642   20.533542   18.660443 C.3        1 MOL1         0.0138
     102    H48     23.528356   21.223407   18.543115 H          1 MOL1         0.0794
     103    H49     24.284422   19.802468   17.845225 H          1 MOL1         0.0794
     104    O25     25.610497   21.243522   18.553298 O.3        1 MOL1        -0.5486
     105    H50     25.638704   21.659115   17.664125 H          1 MOL1         0.3769
     106    C31     21.219335   14.045553   21.988073 C.3        1 MOL1         0.2972
     107    H51     20.794531   13.055635   22.199467 H          1 MOL1         0.0751
     108    O26     20.211237   14.978103   21.560661 O.3        1 MOL1        -0.3740
     109    C32     21.905517   14.615302   23.254207 C.3        1 MOL1         0.1003
     110    H52     22.717883   13.928505   23.525273 H          1 MOL1         0.0783
     111    O27     20.979603   14.710706   24.349022 O.3        1 MOL1        -0.5519
     112    H53     20.112380   14.361935   24.028102 H          1 MOL1         0.3769
     113    C33     22.521445   16.001126   22.959527 C.3        1 MOL1         0.1053
     114    H54     21.699395   16.694564   22.756399 H          1 MOL1         0.0783
     115    O28     23.255097   16.443503   24.104724 O.3        1 MOL1        -0.5519
     116    H55     22.658471   16.260395   24.865101 H          1 MOL1         0.3769
     117    C34     23.437088   15.964349   21.712343 C.3        1 MOL1         0.1018
     118    H56     24.371708   15.458551   21.990104 H          1 MOL1         0.0783
     119    C35     22.778283   15.227842   20.509694 C.3        1 MOL1         0.1043
     120    H57     21.980049   15.870930   20.117504 H          1 MOL1         0.0783
     121    O29     22.205489   13.964333   20.937942 O.3        1 MOL1        -0.3740
     122    C36     23.753956   14.947283   19.341773 C.3        1 MOL1         0.0138
     123    H58     23.996914   15.900668   18.853200 H          1 MOL1         0.0794
     124    H59     23.240367   14.322503   18.598715 H          1 MOL1         0.0794
     125    O30     24.957247   14.307304   19.785140 O.3        1 MOL1        -0.5486
     126    H60     25.486673   14.084044   18.988660 H          1 MOL1         0.3769
     127    C1      19.171685   18.131412   25.204021 C.3        1 MOL1        -0.1685
     128    H1      18.560684   17.740056   26.028445 H          1 MOL1         0.0832
     129    H2      19.912254   17.348755   24.989713 H          1 MOL1         0.0832
     130    C2      19.890105   19.407253   25.703835 C.3        1 MOL1        -0.1685
     131    H3      19.197914   19.986468   26.329886 H          1 MOL1         0.0832
     132    H4      20.709438   19.099488   26.367445 H          1 MOL1         0.0832
     133    C3      20.453392   20.347119   24.612188 C.3        1 MOL1        -0.1685
     134    H5      21.216326   20.986787   25.075815 H          1 MOL1         0.0832
     135    H6      19.665143   21.027987   24.270134 H          1 MOL1         0.0832
     136    C4      21.071982   19.625621   23.394014 C.3        1 MOL1        -0.1761
     137    H7      21.828058   20.287222   22.962883 H          1 MOL1         0.0832
     138    H8      21.603296   18.724425   23.718759 H          1 MOL1         0.0832
     139    C5      20.044721   19.304089   22.286457 C.3        1 MOL1         0.1218
     140    H9      19.477579   20.218103   22.066002 H          1 MOL1         0.0789
     141    C6      19.037677   18.188284   22.632437 C.3        1 MOL1        -0.1761
     142    H10     18.306409   18.139112   21.819901 H          1 MOL1         0.0832
     143    H11     19.554037   17.224631   22.635334 H          1 MOL1         0.0832
     144    C7      18.270222   18.341173   23.967670 C.3        1 MOL1        -0.1685
     145    H12     17.754507   19.307849   24.021069 H          1 MOL1         0.0832
     146    H13     17.483195   17.575723   23.990132 H          1 MOL1         0.0832
     147    O1      20.754769   18.913475   21.116278 O.3        1 MOL1        -0.5509
     148    H14     21.439279   18.275364   21.401007 H          1 MOL1         0.3779
@<TRIPOS>BOND
    1     1     2    1
    2     1     3    1
    3     1     4    1
    4     4     5    1
    5     4     6    1
    6     6     7    1
    7     4     8    1
    8     8     9    1
    9     8    10    1
   10    10    11    1
   11     8    12    1
   12    12    13    1
   13    12    14    1
   14    14    15    1
   15     1    16    1
   16    14    16    1
   17    14    17    1
   18    17    18    1
   19    17    19    1
   20    17    20    1
   21    20    21    1
   22    22    23    1
   23    22    24    1
   24    22    25    1
   25    25    26    1
   26    25    27    1
   27    27    28    1
   28    25    29    1
   29    29    30    1
   30    29    31    1
   31    31    32    1
   32     3    33    1
   33    29    33    1
   34    33    34    1
   35    33    35    1
   36    35    36    1
   37    22    37    1
   38    35    37    1
   39    35    38    1
   40    38    39    1
   41    38    40    1
   42    38    41    1
   43    41    42    1
   44    43    44    1
   45    43    45    1
   46    43    46    1
   47    46    47    1
   48    46    48    1
   49    48    49    1
   50    46    50    1
   51    50    51    1
   52    50    52    1
   53    52    53    1
   54    24    54    1
   55    50    54    1
   56    54    55    1
   57    54    56    1
   58    56    57    1
   59    43    58    1
   60    56    58    1
   61    56    59    1
   62    59    60    1
   63    59    61    1
   64    59    62    1
   65    62    63    1
   66    64    65    1
   67    64    66    1
   68    64    67    1
   69    67    68    1
   70    67    69    1
   71    69    70    1
   72    67    71    1
   73    71    72    1
   74    71    73    1
   75    73    74    1
   76    45    75    1
   77    71    75    1
   78    75    76    1
   79    75    77    1
   80    77    78    1
   81    64    79    1
   82    77    79    1
   83    77    80    1
   84    80    81    1
   85    80    82    1
   86    80    83    1
   87    83    84    1
   88    85    86    1
   89    85    87    1
   90    85    88    1
   91    88    89    1
   92    88    90    1
   93    90    91    1
   94    88    92    1
   95    92    93    1
   96    92    94    1
   97    94    95    1
   98    66    96    1
   99    92    96    1
  100    96    97    1
  101    96    98    1
  102    98    99    1
  103    85   100    1
  104    98   100    1
  105    98   101    1
  106   101   102    1
  107   101   103    1
  108   101   104    1
  109   104   105    1
  110   106   107    1
  111    12   108    1
  112   106   108    1
  113   106   109    1
  114   109   110    1
  115   109   111    1
  116   111   112    1
  117   109   113    1
  118   113   114    1
  119   113   115    1
  120   115   116    1
  121    87   117    1
  122   113   117    1
  123   117   118    1
  124   117   119    1
  125   119   120    1
  126   106   121    1
  127   119   121    1
  128   119   122    1
  129   122   123    1
  130   122   124    1
  131   122   125    1
  132   125   126    1
  133   127   128    1
  134   127   129    1
  135   127   130    1
  136   130   131    1
  137   130   132    1
  138   130   133    1
  139   133   134    1
  140   133   135    1
  141   133   136    1
  142   136   137    1
  143   136   138    1
  144   136   139    1
  145   139   140    1
  146   139   141    1
  147   141   142    1
  148   141   143    1
  149   127   144    1
  150   141   144    1
  151   144   145    1
  152   144   146    1
  153   139   147    1
  154   147   148    1
@<TRIPOS>SUBSTRUCTURE
       1 MOL1            1 RESIDUE      1      MOL     
       2 MOL1          148 RESIDUE      1      MOL     
@<SCITEGIC>MOL_PROPERTY
feprocess Rank
SciTegic.value.IntegerValue
6

@<SCITEGIC>MOL_PROPERTY
Conf_Id
SciTegic.value.IntegerValue
683

@<SCITEGIC>MOL_PROPERTY
Probability
SciTegic.value.DoubleValue
5.19

@<SCITEGIC>MOL_PROPERTY
G
SciTegic.value.DoubleValue
573.823

@<SCITEGIC>MOL_PROPERTY
E
SciTegic.value.DoubleValue
378.324

@<SCITEGIC>MOL_PROPERTY
-TS
SciTegic.value.DoubleValue
195.499

@<SCITEGIC>MOL_PROPERTY
U+W
SciTegic.value.DoubleValue
247.764

@<SCITEGIC>MOL_PROPERTY
U
SciTegic.value.DoubleValue
282.169

@<SCITEGIC>MOL_PROPERTY
W
SciTegic.value.DoubleValue
-34.404

@<SCITEGIC>MOL_PROPERTY
W(PB)
SciTegic.value.DoubleValue
-40.478

@<SCITEGIC>MOL_PROPERTY
W(SA)
SciTegic.value.DoubleValue
6.074

@<SCITEGIC>MOL_PROPERTY
Valence
SciTegic.value.DoubleValue
157.641

@<SCITEGIC>MOL_PROPERTY
Coulomb
SciTegic.value.DoubleValue
151.846

@<SCITEGIC>MOL_PROPERTY
VdW
SciTegic.value.DoubleValue
-27.319

@<SCITEGIC>MOL_PROPERTY
VdW6
SciTegic.value.DoubleValue
-184.681

@<SCITEGIC>MOL_PROPERTY
VdW12
SciTegic.value.DoubleValue
157.362

@<SCITEGIC>MOL_PROPERTY
Bond
SciTegic.value.DoubleValue
4.580

@<SCITEGIC>MOL_PROPERTY
Angle
SciTegic.value.DoubleValue
13.665

@<SCITEGIC>MOL_PROPERTY
Pdih
SciTegic.value.DoubleValue
139.396

@<SCITEGIC>MOL_PROPERTY
Idih
SciTegic.value.DoubleValue
0.000

@<SCITEGIC>MOL_PROPERTY
Tether
SciTegic.value.DoubleValue
0.000

@<TRIPOS>MOLECULE
CD_guest-5_fast_vm2_rndm.mol2 : feprocess host+ligand conformer 7
         148         154           2
SMALL
USER_CHARGES
 
@<TRIPOS>ATOM
       1    C1      16.133964   15.041901   20.921375 C.3        1 MOL1         0.2972
       2    H1      15.065539   14.896402   20.716971 H          1 MOL1         0.0751
       3    O1      16.422918   16.399922   21.306480 O.3        1 MOL1        -0.3740
       4    C2      16.574853   14.123023   22.083423 C.3        1 MOL1         0.1003
       5    H2      16.403652   13.085312   21.768717 H          1 MOL1         0.0783
       6    O2      15.795832   14.400932   23.257835 O.3        1 MOL1        -0.5519
       7    H3      15.560540   15.360523   23.221075 H          1 MOL1         0.3769
       8    C3      18.083000   14.291046   22.386298 C.3        1 MOL1         0.1053
       9    H4      18.229070   15.285361   22.821400 H          1 MOL1         0.0783
      10    O3      18.474895   13.294286   23.336592 O.3        1 MOL1        -0.5519
      11    H5      17.738424   13.266796   23.989256 H          1 MOL1         0.3769
      12    C4      18.953406   14.200975   21.101751 C.3        1 MOL1         0.1018
      13    H6      19.075381   13.146399   20.824119 H          1 MOL1         0.0783
      14    C5      18.348090   14.976052   19.897983 C.3        1 MOL1         0.1043
      15    H7      18.486802   16.045230   20.088070 H          1 MOL1         0.0783
      16    O4      16.929958   14.706957   19.766450 O.3        1 MOL1        -0.3740
      17    C6      19.043398   14.672145   18.548183 C.3        1 MOL1         0.0138
      18    H8      20.044415   15.123987   18.561365 H          1 MOL1         0.0794
      19    H9      18.477035   15.164198   17.746377 H          1 MOL1         0.0794
      20    O5      19.148891   13.268215   18.282551 O.3        1 MOL1        -0.5486
      21    H10     19.858907   12.910577   18.857490 H          1 MOL1         0.3769
      22    C7      14.900228   20.286425   20.869540 C.3        1 MOL1         0.2972
      23    H11     14.264548   21.134327   20.583475 H          1 MOL1         0.0751
      24    O6      16.124571   20.724250   21.486837 O.3        1 MOL1        -0.3740
      25    C8      14.168021   19.372097   21.886705 C.3        1 MOL1         0.1003
      26    H12     13.227806   19.048570   21.421724 H          1 MOL1         0.0783
      27    O7      13.877124   20.090641   23.097456 O.3        1 MOL1        -0.5519
      28    H13     14.691579   20.598959   23.341118 H          1 MOL1         0.3769
      29    C9      15.005384   18.107443   22.203196 C.3        1 MOL1         0.1053
      30    H14     15.899756   18.423795   22.754843 H          1 MOL1         0.0783
      31    O8      14.234416   17.206278   23.005890 O.3        1 MOL1        -0.5519
      32    H15     13.832450   17.766649   23.706111 H          1 MOL1         0.3769
      33    C10     15.467259   17.399281   20.906137 C.3        1 MOL1         0.1018
      34    H16     14.589454   16.957346   20.416712 H          1 MOL1         0.0783
      35    C11     16.150519   18.400587   19.933911 C.3        1 MOL1         0.1043
      36    H17     17.067491   18.774838   20.406206 H          1 MOL1         0.0783
      37    O9      15.239897   19.502559   19.705334 O.3        1 MOL1        -0.3740
      38    C12     16.555924   17.821146   18.554873 C.3        1 MOL1         0.0138
      39    H18     17.571940   17.416219   18.632341 H          1 MOL1         0.0794
      40    H19     16.602322   18.646253   17.831857 H          1 MOL1         0.0794
      41    O10     15.663929   16.805523   18.081607 O.3        1 MOL1        -0.5486
      42    H20     15.920149   15.970302   18.537874 H          1 MOL1         0.3769
      43    C13     18.454451   24.089850   22.013359 C.3        1 MOL1         0.2972
      44    H21     18.855960   25.102725   22.146712 H          1 MOL1         0.0751
      45    O11     19.505918   23.110589   21.911648 O.3        1 MOL1        -0.3740
      46    C14     17.565130   23.720193   23.223318 C.3        1 MOL1         0.1003
      47    H22     16.734515   24.437052   23.258727 H          1 MOL1         0.0783
      48    O12     18.320089   23.804696   24.442784 O.3        1 MOL1        -0.5519
      49    H23     19.273271   23.719277   24.196719 H          1 MOL1         0.3769
      50    C15     16.971288   22.305035   23.046937 C.3        1 MOL1         0.1053
      51    H24     17.798169   21.586871   23.090987 H          1 MOL1         0.0783
      52    O13     16.037753   22.038244   24.099200 O.3        1 MOL1        -0.5519
      53    H25     16.500156   22.312691   24.921851 H          1 MOL1         0.3769
      54    C16     16.274277   22.143858   21.675919 C.3        1 MOL1         0.1018
      55    H26     15.305441   22.659034   21.718585 H          1 MOL1         0.0783
      56    C17     17.128028   22.694824   20.497098 C.3        1 MOL1         0.1043
      57    H27     17.963158   22.000098   20.341498 H          1 MOL1         0.0783
      58    O14     17.653778   24.009776   20.816684 O.3        1 MOL1        -0.3740
      59    C18     16.358741   22.799615   19.158261 C.3        1 MOL1         0.0138
      60    H28     16.195906   21.787171   18.766138 H          1 MOL1         0.0794
      61    H29     16.989794   23.329673   18.432219 H          1 MOL1         0.0794
      62    O15     15.102304   23.472033   19.309390 O.3        1 MOL1        -0.5486
      63    H30     14.704959   23.564872   18.416182 H          1 MOL1         0.3769
      64    C19     23.581429   22.822414   21.090260 C.3        1 MOL1         0.2972
      65    H31     24.615844   23.026244   20.785535 H          1 MOL1         0.0751
      66    O16     23.386094   21.436040   21.435347 O.3        1 MOL1        -0.3740
      67    C20     23.212992   23.656924   22.343699 C.3        1 MOL1         0.1003
      68    H32     23.335435   24.716689   22.085134 H          1 MOL1         0.0783
      69    O17     24.081204   23.331372   23.441737 O.3        1 MOL1        -0.5519
      70    H33     24.247247   22.355793   23.404757 H          1 MOL1         0.3769
      71    C21     21.733611   23.426951   22.739975 C.3        1 MOL1         0.1053
      72    H34     21.632430   22.392106   23.086884 H          1 MOL1         0.0783
      73    O18     21.366971   24.322072   23.795087 O.3        1 MOL1        -0.5519
      74    H35     22.108742   24.275421   24.438428 H          1 MOL1         0.3769
      75    C22     20.792920   23.625239   21.526414 C.3        1 MOL1         0.1018
      76    H36     20.756281   24.696817   21.289927 H          1 MOL1         0.0783
      77    C23     21.275628   22.848118   20.269867 C.3        1 MOL1         0.1043
      78    H37     21.188236   21.772793   20.461830 H          1 MOL1         0.0783
      79    O19     22.664768   23.173556   20.029278 O.3        1 MOL1        -0.3740
      80    C24     20.468318   23.133586   18.976447 C.3        1 MOL1         0.0138
      81    H38     19.636686   22.420342   18.921325 H          1 MOL1         0.0794
      82    H39     21.113765   22.932568   18.111054 H          1 MOL1         0.0794
      83    O20     19.957115   24.470059   18.906796 O.3        1 MOL1        -0.5486
      84    H40     19.178743   24.512595   19.510199 H          1 MOL1         0.3769
      85    C25     25.009216   17.653215   20.960936 C.3        1 MOL1         0.2972
      86    H41     25.640315   16.781019   20.747559 H          1 MOL1         0.0751
      87    O21     23.640505   17.266325   21.206766 O.3        1 MOL1        -0.3740
      88    C26     25.552904   18.451614   22.176698 C.3        1 MOL1         0.1003
      89    H42     26.553868   18.812055   21.905969 H          1 MOL1         0.0783
      90    O22     25.656676   17.634551   23.352423 O.3        1 MOL1        -0.5519
      91    H43     24.744486   17.310311   23.563555 H          1 MOL1         0.3769
      92    C27     24.661019   19.685466   22.449377 C.3        1 MOL1         0.1053
      93    H44     23.674348   19.322267   22.759723 H          1 MOL1         0.0783
      94    O23     25.233913   20.480301   23.493550 O.3        1 MOL1        -0.5519
      95    H45     25.502181   19.838153   24.187601 H          1 MOL1         0.3769
      96    C28     24.487725   20.545766   21.173541 C.3        1 MOL1         0.1018
      97    H46     25.425300   21.090245   21.001136 H          1 MOL1         0.0783
      98    C29     24.133337   19.696371   19.919870 C.3        1 MOL1         0.1043
      99    H47     23.096255   19.349347   20.021034 H          1 MOL1         0.0783
     100    O24     25.014675   18.548241   19.829469 O.3        1 MOL1        -0.3740
     101    C30     24.232924   20.482328   18.590293 C.3        1 MOL1         0.0138
     102    H48     23.398334   21.193198   18.540490 H          1 MOL1         0.0794
     103    H49     24.107594   19.777651   17.757407 H          1 MOL1         0.0794
     104    O25     25.477654   21.182795   18.466352 O.3        1 MOL1        -0.5486
     105    H50     25.480355   21.631348   17.592881 H          1 MOL1         0.3769
     106    C31     21.225794   13.989004   21.986483 C.3        1 MOL1         0.2972
     107    H51     20.819010   13.004989   22.252496 H          1 MOL1         0.0751
     108    O26     20.224728   14.828491   21.373870 O.3        1 MOL1        -0.3740
     109    C32     21.787026   14.695106   23.247906 C.3        1 MOL1         0.1003
     110    H52     22.579954   14.051888   23.651388 H          1 MOL1         0.0783
     111    O27     20.774768   14.880089   24.250234 O.3        1 MOL1        -0.5519
     112    H53     20.046578   14.243911   24.051670 H          1 MOL1         0.3769
     113    C33     22.412464   16.059064   22.882418 C.3        1 MOL1         0.1053
     114    H54     21.600582   16.719314   22.557700 H          1 MOL1         0.0783
     115    O28     23.044558   16.604134   24.043668 O.3        1 MOL1        -0.5519
     116    H55     22.385258   16.476032   24.762215 H          1 MOL1         0.3769
     117    C34     23.429947   15.935138   21.721164 C.3        1 MOL1         0.1018
     118    H56     24.355693   15.494618   22.114818 H          1 MOL1         0.0783
     119    C35     22.889499   15.070515   20.546477 C.3        1 MOL1         0.1043
     120    H57     22.111267   15.647394   20.029564 H          1 MOL1         0.0783
     121    O29     22.312019   13.838927   21.049083 O.3        1 MOL1        -0.3740
     122    C36     23.967147   14.710930   19.495448 C.3        1 MOL1         0.0138
     123    H58     24.224887   15.620332   18.935825 H          1 MOL1         0.0794
     124    H59     23.533905   13.999723   18.779461 H          1 MOL1         0.0794
     125    O30     25.146215   14.158904   20.095062 O.3        1 MOL1        -0.5486
     126    H60     25.746140   13.878933   19.369543 H          1 MOL1         0.3769
     127    C1      19.088309   19.591332   25.653835 C.3        1 MOL1        -0.1685
     128    H1      18.504498   20.180595   26.373678 H          1 MOL1         0.0832
     129    H2      19.618278   18.831815   26.244443 H          1 MOL1         0.0832
     130    C2      20.120497   20.521679   24.978653 C.3        1 MOL1        -0.1685
     131    H3      19.620610   21.288951   24.376122 H          1 MOL1         0.0832
     132    H4      20.655866   21.060755   25.771768 H          1 MOL1         0.0832
     133    C3      21.158239   19.757102   24.130169 C.3        1 MOL1        -0.1685
     134    H5      21.404690   18.801022   24.609261 H          1 MOL1         0.0832
     135    H6      22.093146   20.332449   24.124083 H          1 MOL1         0.0832
     136    C4      20.728507   19.524734   22.661881 C.3        1 MOL1        -0.1761
     137    H7      20.729340   20.489240   22.147874 H          1 MOL1         0.0832
     138    H8      21.506125   18.932106   22.166270 H          1 MOL1         0.0832
     139    C5      19.342958   18.881600   22.415872 C.3        1 MOL1         0.1218
     140    H9      18.628117   19.686814   22.199176 H          1 MOL1         0.0789
     141    C6      18.769858   18.043312   23.579291 C.3        1 MOL1        -0.1761
     142    H10     17.988719   17.394631   23.171478 H          1 MOL1         0.0832
     143    H11     19.535455   17.380667   24.001544 H          1 MOL1         0.0832
     144    C7      18.105721   18.890285   24.690388 C.3        1 MOL1        -0.1685
     145    H12     17.435496   19.630958   24.238596 H          1 MOL1         0.0832
     146    H13     17.460013   18.231882   25.286965 H          1 MOL1         0.0832
     147    O1      19.441782   18.045496   21.269651 O.3        1 MOL1        -0.5509
     148    H14     19.876668   17.221027   21.564889 H          1 MOL1         0.3779
@<TRIPOS>BOND
    1     1     2    1
    2     1     3    1
    3     1     4    1
    4     4     5    1
    5     4     6    1
    6     6     7    1
    7     4     8    1
    8     8     9    1
    9     8    10    1
   10    10    11    1
   11     8    12    1
   12    12    13    1
   13    12    14    1
   14    14    15    1
   15     1    16    1
   16    14    16    1
   17    14    17    1
   18    17    18    1
   19    17    19    1
   20    17    20    1
   21    20    21    1
   22    22    23    1
   23    22    24    1
   24    22    25    1
   25    25    26    1
   26    25    27    1
   27    27    28    1
   28    25    29    1
   29    29    30    1
   30    29    31    1
   31    31    32    1
   32     3    33    1
   33    29    33    1
   34    33    34    1
   35    33    35    1
   36    35    36    1
   37    22    37    1
   38    35    37    1
   39    35    38    1
   40    38    39    1
   41    38    40    1
   42    38    41    1
   43    41    42    1
   44    43    44    1
   45    43    45    1
   46    43    46    1
   47    46    47    1
   48    46    48    1
   49    48    49    1
   50    46    50    1
   51    50    51    1
   52    50    52    1
   53    52    53    1
   54    24    54    1
   55    50    54    1
   56    54    55    1
   57    54    56    1
   58    56    57    1
   59    43    58    1
   60    56    58    1
   61    56    59    1
   62    59    60    1
   63    59    61    1
   64    59    62    1
   65    62    63    1
   66    64    65    1
   67    64    66    1
   68    64    67    1
   69    67    68    1
   70    67    69    1
   71    69    70    1
   72    67    71    1
   73    71    72    1
   74    71    73    1
   75    73    74    1
   76    45    75    1
   77    71    75    1
   78    75    76    1
   79    75    77    1
   80    77    78    1
   81    64    79    1
   82    77    79    1
   83    77    80    1
   84    80    81    1
   85    80    82    1
   86    80    83    1
   87    83    84    1
   88    85    86    1
   89    85    87    1
   90    85    88    1
   91    88    89    1
   92    88    90    1
   93    90    91    1
   94    88    92    1
   95    92    93    1
   96    92    94    1
   97    94    95    1
   98    66    96    1
   99    92    96    1
  100    96    97    1
  101    96    98    1
  102    98    99    1
  103    85   100    1
  104    98   100    1
  105    98   101    1
  106   101   102    1
  107   101   103    1
  108   101   104    1
  109   104   105    1
  110   106   107    1
  111    12   108    1
  112   106   108    1
  113   106   109    1
  114   109   110    1
  115   109   111    1
  116   111   112    1
  117   109   113    1
  118   113   114    1
  119   113   115    1
  120   115   116    1
  121    87   117    1
  122   113   117    1
  123   117   118    1
  124   117   119    1
  125   119   120    1
  126   106   121    1
  127   119   121    1
  128   119   122    1
  129   122   123    1
  130   122   124    1
  131   122   125    1
  132   125   126    1
  133   127   128    1
  134   127   129    1
  135   127   130    1
  136   130   131    1
  137   130   132    1
  138   130   133    1
  139   133   134    1
  140   133   135    1
  141   133   136    1
  142   136   137    1
  143   136   138    1
  144   136   139    1
  145   139   140    1
  146   139   141    1
  147   141   142    1
  148   141   143    1
  149   127   144    1
  150   141   144    1
  151   144   145    1
  152   144   146    1
  153   139   147    1
  154   147   148    1
@<TRIPOS>SUBSTRUCTURE
       1 MOL1            1 RESIDUE      1      MOL     
       2 MOL1          148 RESIDUE      1      MOL     
@<SCITEGIC>MOL_PROPERTY
feprocess Rank
SciTegic.value.IntegerValue
7

@<SCITEGIC>MOL_PROPERTY
Conf_Id
SciTegic.value.IntegerValue
595

@<SCITEGIC>MOL_PROPERTY
Probability
SciTegic.value.DoubleValue
2.79

@<SCITEGIC>MOL_PROPERTY
G
SciTegic.value.DoubleValue
574.193

@<SCITEGIC>MOL_PROPERTY
E
SciTegic.value.DoubleValue
377.430

@<SCITEGIC>MOL_PROPERTY
-TS
SciTegic.value.DoubleValue
196.764

@<SCITEGIC>MOL_PROPERTY
U+W
SciTegic.value.DoubleValue
246.870

@<SCITEGIC>MOL_PROPERTY
U
SciTegic.value.DoubleValue
282.637

@<SCITEGIC>MOL_PROPERTY
W
SciTegic.value.DoubleValue
-35.767

@<SCITEGIC>MOL_PROPERTY
W(PB)
SciTegic.value.DoubleValue
-41.860

@<SCITEGIC>MOL_PROPERTY
W(SA)
SciTegic.value.DoubleValue
6.094

@<SCITEGIC>MOL_PROPERTY
Valence
SciTegic.value.DoubleValue
158.315

@<SCITEGIC>MOL_PROPERTY
Coulomb
SciTegic.value.DoubleValue
151.212

@<SCITEGIC>MOL_PROPERTY
VdW
SciTegic.value.DoubleValue
-26.889

@<SCITEGIC>MOL_PROPERTY
VdW6
SciTegic.value.DoubleValue
-184.126

@<SCITEGIC>MOL_PROPERTY
VdW12
SciTegic.value.DoubleValue
157.237

@<SCITEGIC>MOL_PROPERTY
Bond
SciTegic.value.DoubleValue
4.549

@<SCITEGIC>MOL_PROPERTY
Angle
SciTegic.value.DoubleValue
13.316

@<SCITEGIC>MOL_PROPERTY
Pdih
SciTegic.value.DoubleValue
140.450

@<SCITEGIC>MOL_PROPERTY
Idih
SciTegic.value.DoubleValue
0.000

@<SCITEGIC>MOL_PROPERTY
Tether
SciTegic.value.DoubleValue
0.000

@<TRIPOS>MOLECULE
CD_guest-5_fast_vm2_rndm.mol2 : feprocess host+ligand conformer 8
         148         154           2
SMALL
USER_CHARGES
 
@<TRIPOS>ATOM
       1    C1      16.142116   15.218378   20.912495 C.3        1 MOL1         0.2972
       2    H1      15.073351   15.071409   20.710225 H          1 MOL1         0.0751
       3    O1      16.431284   16.573456   21.310263 O.3        1 MOL1        -0.3740
       4    C2      16.624998   14.270560   22.040643 C.3        1 MOL1         0.1003
       5    H2      16.463784   13.240605   21.696680 H          1 MOL1         0.0783
       6    O2      15.884233   14.481386   23.253117 O.3        1 MOL1        -0.5519
       7    H3      15.823528   15.459263   23.402043 H          1 MOL1         0.3769
       8    C3      18.140720   14.457955   22.289594 C.3        1 MOL1         0.1053
       9    H4      18.296596   15.472361   22.675610 H          1 MOL1         0.0783
      10    O3      18.598157   13.497264   23.247707 O.3        1 MOL1        -0.5519
      11    H5      17.922814   13.507820   23.961900 H          1 MOL1         0.3769
      12    C4      18.943157   14.309170   20.974740 C.3        1 MOL1         0.1018
      13    H6      18.945746   13.246439   20.698838 H          1 MOL1         0.0783
      14    C5      18.339787   15.154472   19.816655 C.3        1 MOL1         0.1043
      15    H7      18.521494   16.215655   20.032649 H          1 MOL1         0.0783
      16    O4      16.912073   14.922059   19.729221 O.3        1 MOL1        -0.3740
      17    C6      18.952897   14.846579   18.429132 C.3        1 MOL1         0.0138
      18    H8      19.962510   15.274037   18.388115 H          1 MOL1         0.0794
      19    H9      18.355658   15.357612   17.662225 H          1 MOL1         0.0794
      20    O5      19.006902   13.439430   18.160471 O.3        1 MOL1        -0.5486
      21    H10     19.372252   13.323433   17.256534 H          1 MOL1         0.3769
      22    C7      14.741491   20.314793   21.753126 C.3        1 MOL1         0.2972
      23    H11     14.085390   21.188114   21.861485 H          1 MOL1         0.0751
      24    O6      16.123944   20.696495   21.622792 O.3        1 MOL1        -0.3740
      25    C8      14.603842   19.397009   22.990912 C.3        1 MOL1         0.1003
      26    H12     13.565300   19.043129   23.027374 H          1 MOL1         0.0783
      27    O7      14.900522   20.115878   24.198818 O.3        1 MOL1        -0.5519
      28    H13     15.402785   20.927634   23.939497 H          1 MOL1         0.3769
      29    C9      15.524659   18.164942   22.852404 C.3        1 MOL1         0.1053
      30    H14     16.562721   18.514421   22.876630 H          1 MOL1         0.0783
      31    O8      15.289292   17.273232   23.945737 O.3        1 MOL1        -0.5519
      32    H15     15.268367   17.853822   24.739286 H          1 MOL1         0.3769
      33    C10     15.292829   17.435682   21.507052 C.3        1 MOL1         0.1018
      34    H16     14.353104   16.872322   21.579542 H          1 MOL1         0.0783
      35    C11     15.237835   18.408931   20.293762 C.3        1 MOL1         0.1043
      36    H17     16.259138   18.763305   20.104339 H          1 MOL1         0.0783
      37    O9      14.386396   19.549671   20.582648 O.3        1 MOL1        -0.3740
      38    C12     14.734334   17.741398   18.991795 C.3        1 MOL1         0.0138
      39    H18     15.504433   17.043066   18.637299 H          1 MOL1         0.0794
      40    H19     14.617646   18.516250   18.222225 H          1 MOL1         0.0794
      41    O10     13.498482   17.042588   19.187542 O.3        1 MOL1        -0.5486
      42    H20     13.211541   16.695311   18.314938 H          1 MOL1         0.3769
      43    C13     18.507426   24.058439   21.047411 C.3        1 MOL1         0.2972
      44    H21     18.876849   25.062754   20.804099 H          1 MOL1         0.0751
      45    O11     19.580021   23.176240   21.431053 O.3        1 MOL1        -0.3740
      46    C14     17.529353   24.138001   22.245797 C.3        1 MOL1         0.1003
      47    H22     16.702789   24.800701   21.958333 H          1 MOL1         0.0783
      48    O12     18.197007   24.678932   23.397297 O.3        1 MOL1        -0.5519
      49    H23     19.143995   24.400435   23.335791 H          1 MOL1         0.3769
      50    C15     16.938794   22.745597   22.570413 C.3        1 MOL1         0.1053
      51    H24     17.748459   22.110865   22.947369 H          1 MOL1         0.0783
      52    O13     15.923155   22.874237   23.569960 O.3        1 MOL1        -0.5519
      53    H25     16.308076   23.475212   24.246479 H          1 MOL1         0.3769
      54    C16     16.360295   22.077469   21.301172 C.3        1 MOL1         0.1018
      55    H26     15.438994   22.601740   21.014980 H          1 MOL1         0.0783
      56    C17     17.356359   22.115655   20.110935 C.3        1 MOL1         0.1043
      57    H27     18.213713   21.479554   20.360087 H          1 MOL1         0.0783
      58    O14     17.815736   23.477688   19.917756 O.3        1 MOL1        -0.3740
      59    C18     16.779509   21.576310   18.775406 C.3        1 MOL1         0.0138
      60    H28     16.969116   20.496248   18.728767 H          1 MOL1         0.0794
      61    H29     17.332502   22.032895   17.943743 H          1 MOL1         0.0794
      62    O15     15.375353   21.817243   18.623881 O.3        1 MOL1        -0.5486
      63    H30     14.907601   21.182938   19.215048 H          1 MOL1         0.3769
      64    C19     23.686193   22.606206   20.923058 C.3        1 MOL1         0.2972
      65    H31     24.743671   22.709895   20.647713 H          1 MOL1         0.0751
      66    O16     23.398226   21.293035   21.437439 O.3        1 MOL1        -0.3740
      67    C20     23.277116   23.655215   21.992496 C.3        1 MOL1         0.1003
      68    H32     23.451785   24.648063   21.558074 H          1 MOL1         0.0783
      69    O17     24.062603   23.522179   23.187700 O.3        1 MOL1        -0.5519
      70    H33     23.958571   22.589971   23.507600 H          1 MOL1         0.3769
      71    C21     21.768582   23.538136   22.324239 C.3        1 MOL1         0.1053
      72    H34     21.605523   22.574391   22.824066 H          1 MOL1         0.0783
      73    O18     21.379011   24.605964   23.194940 O.3        1 MOL1        -0.5519
      74    H35     22.078562   24.644341   23.884187 H          1 MOL1         0.3769
      75    C22     20.907293   23.570461   21.037406 C.3        1 MOL1         0.1018
      76    H36     20.932825   24.590682   20.632700 H          1 MOL1         0.0783
      77    C23     21.430473   22.572841   19.966164 C.3        1 MOL1         0.1043
      78    H37     21.279564   21.552936   20.342174 H          1 MOL1         0.0783
      79    O19     22.846965   22.807076   19.763644 O.3        1 MOL1        -0.3740
      80    C24     20.720078   22.647536   18.590472 C.3        1 MOL1         0.0138
      81    H38     19.839755   21.993433   18.617981 H          1 MOL1         0.0794
      82    H39     21.395250   22.238222   17.827233 H          1 MOL1         0.0794
      83    O20     20.318546   23.973710   18.230367 O.3        1 MOL1        -0.5486
      84    H40     19.435041   24.119161   18.639233 H          1 MOL1         0.3769
      85    C25     24.920754   17.634126   22.429400 C.3        1 MOL1         0.2972
      86    H41     25.496663   16.747129   22.723472 H          1 MOL1         0.0751
      87    O21     23.593236   17.277061   21.994581 O.3        1 MOL1        -0.3740
      88    C26     24.815230   18.613413   23.624023 C.3        1 MOL1         0.1003
      89    H42     25.832189   18.942986   23.873032 H          1 MOL1         0.0783
      90    O22     24.231300   17.971722   24.766840 O.3        1 MOL1        -0.5519
      91    H43     23.336897   17.653277   24.483859 H          1 MOL1         0.3769
      92    C27     23.985957   19.854106   23.232269 C.3        1 MOL1         0.1053
      93    H44     22.961084   19.514535   23.048850 H          1 MOL1         0.0783
      94    O23     23.994920   20.800547   24.306118 O.3        1 MOL1        -0.5519
      95    H45     23.861543   20.262573   25.117976 H          1 MOL1         0.3769
      96    C28     24.505073   20.516470   21.933806 C.3        1 MOL1         0.1018
      97    H46     25.377006   21.138660   22.175632 H          1 MOL1         0.0783
      98    C29     24.855725   19.488159   20.819838 C.3        1 MOL1         0.1043
      99    H47     23.905085   19.147064   20.398750 H          1 MOL1         0.0783
     100    O24     25.569477   18.337538   21.347059 O.3        1 MOL1        -0.3740
     101    C30     25.678939   20.088813   19.655334 C.3        1 MOL1         0.0138
     102    H48     25.030777   20.765063   19.081747 H          1 MOL1         0.0794
     103    H49     25.978668   19.276356   18.979782 H          1 MOL1         0.0794
     104    O25     26.832123   20.799392   20.121920 O.3        1 MOL1        -0.5486
     105    H50     27.348517   21.079877   19.334884 H          1 MOL1         0.3769
     106    C31     21.359763   14.019445   20.710584 C.3        1 MOL1         0.2972
     107    H51     21.006315   13.088174   20.249703 H          1 MOL1         0.0751
     108    O26     20.271065   14.794785   21.253402 O.3        1 MOL1        -0.3740
     109    C32     22.331221   13.707107   21.874486 C.3        1 MOL1         0.1003
     110    H52     23.157482   13.115316   21.459653 H          1 MOL1         0.0783
     111    O27     21.662720   12.941326   22.891026 O.3        1 MOL1        -0.5519
     112    H53     20.755609   13.324196   22.993339 H          1 MOL1         0.3769
     113    C33     22.931887   15.001598   22.481424 C.3        1 MOL1         0.1053
     114    H54     22.140548   15.515584   23.040704 H          1 MOL1         0.0783
     115    O28     23.993997   14.639337   23.369346 O.3        1 MOL1        -0.5519
     116    H55     23.606369   13.973993   23.978712 H          1 MOL1         0.3769
     117    C34     23.458661   15.974836   21.391435 C.3        1 MOL1         0.1018
     118    H56     24.419781   15.596377   21.019941 H          1 MOL1         0.0783
     119    C35     22.475135   16.127568   20.197619 C.3        1 MOL1         0.1043
     120    H57     21.592442   16.676296   20.545890 H          1 MOL1         0.0783
     121    O29     22.071181   14.817533   19.743116 O.3        1 MOL1        -0.3740
     122    C36     23.039105   16.906764   18.980627 C.3        1 MOL1         0.0138
     123    H58     22.772924   17.964660   19.091754 H          1 MOL1         0.0794
     124    H59     22.530599   16.554068   18.073386 H          1 MOL1         0.0794
     125    O30     24.458488   16.772858   18.827115 O.3        1 MOL1        -0.5486
     126    H60     24.881363   17.168585   19.623633 H          1 MOL1         0.3769
     127    C1      18.577613   20.043357   24.892830 C.3        1 MOL1        -0.1685
     128    H1      17.728011   19.919481   24.211045 H          1 MOL1         0.0832
     129    H2      18.268210   20.801237   25.625133 H          1 MOL1         0.0832
     130    C2      19.806898   20.587171   24.133674 C.3        1 MOL1        -0.1685
     131    H3      19.699605   21.674678   24.026788 H          1 MOL1         0.0832
     132    H4      20.710794   20.457848   24.741647 H          1 MOL1         0.0832
     133    C3      20.011620   19.991072   22.719796 C.3        1 MOL1        -0.1685
     134    H5      21.029591   20.225608   22.390814 H          1 MOL1         0.0832
     135    H6      19.356411   20.525046   22.023267 H          1 MOL1         0.0832
     136    C4      19.752000   18.472588   22.525511 C.3        1 MOL1        -0.1761
     137    H7      18.696414   18.323131   22.271430 H          1 MOL1         0.0832
     138    H8      20.304091   18.149408   21.636135 H          1 MOL1         0.0832
     139    C5      20.111323   17.519870   23.688297 C.3        1 MOL1         0.1218
     140    H9      20.187862   16.509496   23.267311 H          1 MOL1         0.0789
     141    C6      19.021207   17.467733   24.781543 C.3        1 MOL1        -0.1761
     142    H10     18.058438   17.236094   24.311250 H          1 MOL1         0.0832
     143    H11     19.239604   16.615172   25.437475 H          1 MOL1         0.0832
     144    C7      18.861627   18.732314   25.662404 C.3        1 MOL1        -0.1685
     145    H12     18.029567   18.555273   26.357055 H          1 MOL1         0.0832
     146    H13     19.751331   18.859719   26.293456 H          1 MOL1         0.0832
     147    O1      21.356435   17.871793   24.264658 O.3        1 MOL1        -0.5509
     148    H14     21.184964   18.762177   24.627129 H          1 MOL1         0.3779
@<TRIPOS>BOND
    1     1     2    1
    2     1     3    1
    3     1     4    1
    4     4     5    1
    5     4     6    1
    6     6     7    1
    7     4     8    1
    8     8     9    1
    9     8    10    1
   10    10    11    1
   11     8    12    1
   12    12    13    1
   13    12    14    1
   14    14    15    1
   15     1    16    1
   16    14    16    1
   17    14    17    1
   18    17    18    1
   19    17    19    1
   20    17    20    1
   21    20    21    1
   22    22    23    1
   23    22    24    1
   24    22    25    1
   25    25    26    1
   26    25    27    1
   27    27    28    1
   28    25    29    1
   29    29    30    1
   30    29    31    1
   31    31    32    1
   32     3    33    1
   33    29    33    1
   34    33    34    1
   35    33    35    1
   36    35    36    1
   37    22    37    1
   38    35    37    1
   39    35    38    1
   40    38    39    1
   41    38    40    1
   42    38    41    1
   43    41    42    1
   44    43    44    1
   45    43    45    1
   46    43    46    1
   47    46    47    1
   48    46    48    1
   49    48    49    1
   50    46    50    1
   51    50    51    1
   52    50    52    1
   53    52    53    1
   54    24    54    1
   55    50    54    1
   56    54    55    1
   57    54    56    1
   58    56    57    1
   59    43    58    1
   60    56    58    1
   61    56    59    1
   62    59    60    1
   63    59    61    1
   64    59    62    1
   65    62    63    1
   66    64    65    1
   67    64    66    1
   68    64    67    1
   69    67    68    1
   70    67    69    1
   71    69    70    1
   72    67    71    1
   73    71    72    1
   74    71    73    1
   75    73    74    1
   76    45    75    1
   77    71    75    1
   78    75    76    1
   79    75    77    1
   80    77    78    1
   81    64    79    1
   82    77    79    1
   83    77    80    1
   84    80    81    1
   85    80    82    1
   86    80    83    1
   87    83    84    1
   88    85    86    1
   89    85    87    1
   90    85    88    1
   91    88    89    1
   92    88    90    1
   93    90    91    1
   94    88    92    1
   95    92    93    1
   96    92    94    1
   97    94    95    1
   98    66    96    1
   99    92    96    1
  100    96    97    1
  101    96    98    1
  102    98    99    1
  103    85   100    1
  104    98   100    1
  105    98   101    1
  106   101   102    1
  107   101   103    1
  108   101   104    1
  109   104   105    1
  110   106   107    1
  111    12   108    1
  112   106   108    1
  113   106   109    1
  114   109   110    1
  115   109   111    1
  116   111   112    1
  117   109   113    1
  118   113   114    1
  119   113   115    1
  120   115   116    1
  121    87   117    1
  122   113   117    1
  123   117   118    1
  124   117   119    1
  125   119   120    1
  126   106   121    1
  127   119   121    1
  128   119   122    1
  129   122   123    1
  130   122   124    1
  131   122   125    1
  132   125   126    1
  133   127   128    1
  134   127   129    1
  135   127   130    1
  136   130   131    1
  137   130   132    1
  138   130   133    1
  139   133   134    1
  140   133   135    1
  141   133   136    1
  142   136   137    1
  143   136   138    1
  144   136   139    1
  145   139   140    1
  146   139   141    1
  147   141   142    1
  148   141   143    1
  149   127   144    1
  150   141   144    1
  151   144   145    1
  152   144   146    1
  153   139   147    1
  154   147   148    1
@<TRIPOS>SUBSTRUCTURE
       1 MOL1            1 RESIDUE      1      MOL     
       2 MOL1          148 RESIDUE      1      MOL     
@<SCITEGIC>MOL_PROPERTY
feprocess Rank
SciTegic.value.IntegerValue
8

@<SCITEGIC>MOL_PROPERTY
Conf_Id
SciTegic.value.IntegerValue
23

@<SCITEGIC>MOL_PROPERTY
Probability
SciTegic.value.DoubleValue
2.08

@<SCITEGIC>MOL_PROPERTY
G
SciTegic.value.DoubleValue
574.368

@<SCITEGIC>MOL_PROPERTY
E
SciTegic.value.DoubleValue
377.422

@<SCITEGIC>MOL_PROPERTY
-TS
SciTegic.value.DoubleValue
196.947

@<SCITEGIC>MOL_PROPERTY
U+W
SciTegic.value.DoubleValue
246.862

@<SCITEGIC>MOL_PROPERTY
U
SciTegic.value.DoubleValue
283.991

@<SCITEGIC>MOL_PROPERTY
W
SciTegic.value.DoubleValue
-37.128

@<SCITEGIC>MOL_PROPERTY
W(PB)
SciTegic.value.DoubleValue
-43.154

@<SCITEGIC>MOL_PROPERTY
W(SA)
SciTegic.value.DoubleValue
6.026

@<SCITEGIC>MOL_PROPERTY
Valence
SciTegic.value.DoubleValue
159.072

@<SCITEGIC>MOL_PROPERTY
Coulomb
SciTegic.value.DoubleValue
151.063

@<SCITEGIC>MOL_PROPERTY
VdW
SciTegic.value.DoubleValue
-26.144

@<SCITEGIC>MOL_PROPERTY
VdW6
SciTegic.value.DoubleValue
-183.965

@<SCITEGIC>MOL_PROPERTY
VdW12
SciTegic.value.DoubleValue
157.821

@<SCITEGIC>MOL_PROPERTY
Bond
SciTegic.value.DoubleValue
4.699

@<SCITEGIC>MOL_PROPERTY
Angle
SciTegic.value.DoubleValue
14.797

@<SCITEGIC>MOL_PROPERTY
Pdih
SciTegic.value.DoubleValue
139.575

@<SCITEGIC>MOL_PROPERTY
Idih
SciTegic.value.DoubleValue
0.000

@<SCITEGIC>MOL_PROPERTY
Tether
SciTegic.value.DoubleValue
0.000

