@<TRIPOS>MOLECULE
CD_guest-s14_fast_vm2_rndm.mol2 : feprocess host+ligand conformer 1
         152         157           2
SMALL
USER_CHARGES
 
@<TRIPOS>ATOM
       1    C1      16.188578   14.987435   20.797693 C.3        1 MOL1         0.2972
       2    H1      15.138070   14.840140   20.516024 H          1 MOL1         0.0751
       3    O1      16.488509   16.373421   21.067785 O.3        1 MOL1        -0.3740
       4    C2      16.541682   14.164241   22.061710 C.3        1 MOL1         0.1003
       5    H2      16.420699   13.102280   21.811060 H          1 MOL1         0.0783
       6    O2      15.676118   14.489546   23.160256 O.3        1 MOL1        -0.5519
       7    H3      15.600176   15.476844   23.199555 H          1 MOL1         0.3769
       8    C3      18.020625   14.401602   22.443405 C.3        1 MOL1         0.1053
       9    H4      18.131259   15.457433   22.719026 H          1 MOL1         0.0783
      10    O3      18.379221   13.575061   23.555927 O.3        1 MOL1        -0.5519
      11    H5      17.617327   13.636496   24.174320 H          1 MOL1         0.3769
      12    C4      18.958597   14.112085   21.246491 C.3        1 MOL1         0.1018
      13    H6      19.025515   13.023302   21.122772 H          1 MOL1         0.0783
      14    C5      18.470512   14.763199   19.918743 C.3        1 MOL1         0.1043
      15    H7      18.648170   15.843147   19.975683 H          1 MOL1         0.0783
      16    O4      17.051806   14.532838   19.735563 O.3        1 MOL1        -0.3740
      17    C6      19.205141   14.239376   18.661595 C.3        1 MOL1         0.0138
      18    H8      20.231525   14.626709   18.666883 H          1 MOL1         0.0794
      19    H9      18.712000   14.650177   17.770640 H          1 MOL1         0.0794
      20    O5      19.223614   12.807087   18.603943 O.3        1 MOL1        -0.5486
      21    H10     19.712323   12.550904   17.791898 H          1 MOL1         0.3769
      22    C7      14.860602   20.181485   20.970620 C.3        1 MOL1         0.2972
      23    H11     14.213472   21.063400   20.882129 H          1 MOL1         0.0751
      24    O6      16.256680   20.556129   20.994580 O.3        1 MOL1        -0.3740
      25    C8      14.503889   19.353762   22.236191 C.3        1 MOL1         0.1003
      26    H12     13.474780   18.994830   22.104009 H          1 MOL1         0.0783
      27    O7      14.564125   20.134984   23.438317 O.3        1 MOL1        -0.5519
      28    H13     15.511584   20.394896   23.561728 H          1 MOL1         0.3769
      29    C9      15.425879   18.117041   22.342343 C.3        1 MOL1         0.1053
      30    H14     16.454904   18.466706   22.490308 H          1 MOL1         0.0783
      31    O8      15.023114   17.317900   23.458435 O.3        1 MOL1        -0.5519
      32    H15     14.842052   17.960168   24.180695 H          1 MOL1         0.3769
      33    C10     15.370686   17.281038   21.039659 C.3        1 MOL1         0.1018
      34    H16     14.409033   16.751654   21.015047 H          1 MOL1         0.0783
      35    C11     15.522542   18.152361   19.761510 C.3        1 MOL1         0.1043
      36    H17     16.565574   18.486818   19.698692 H          1 MOL1         0.0783
      37    O9      14.657841   19.313706   19.835323 O.3        1 MOL1        -0.3740
      38    C12     15.203705   17.384614   18.456170 C.3        1 MOL1         0.0138
      39    H18     16.003273   16.652726   18.278576 H          1 MOL1         0.0794
      40    H19     15.219278   18.094818   17.618677 H          1 MOL1         0.0794
      41    O10     13.938068   16.714438   18.518812 O.3        1 MOL1        -0.5486
      42    H20     13.782472   16.290626   17.646718 H          1 MOL1         0.3769
      43    C13     18.742322   23.795765   21.888593 C.3        1 MOL1         0.2972
      44    H21     19.132543   24.759367   22.238871 H          1 MOL1         0.0751
      45    O11     19.696096   23.109761   21.051106 O.3        1 MOL1        -0.3740
      46    C14     18.366400   22.888236   23.092189 C.3        1 MOL1         0.1003
      47    H22     17.604014   23.424695   23.672145 H          1 MOL1         0.0783
      48    O12     19.490699   22.610111   23.942533 O.3        1 MOL1        -0.5519
      49    H23     20.119372   23.364622   23.848641 H          1 MOL1         0.3769
      50    C15     17.750946   21.559306   22.603346 C.3        1 MOL1         0.1053
      51    H24     18.526318   21.010868   22.055974 H          1 MOL1         0.0783
      52    O13     17.332020   20.805166   23.744367 O.3        1 MOL1        -0.5519
      53    H25     18.072647   20.909419   24.383416 H          1 MOL1         0.3769
      54    C16     16.568504   21.811393   21.636759 C.3        1 MOL1         0.1018
      55    H26     15.719728   22.199713   22.215141 H          1 MOL1         0.0783
      56    C17     16.945129   22.827130   20.522448 C.3        1 MOL1         0.1043
      57    H27     17.671740   22.348310   19.852714 H          1 MOL1         0.0783
      58    O14     17.544953   24.009414   21.110601 O.3        1 MOL1        -0.3740
      59    C18     15.740315   23.271040   19.658277 C.3        1 MOL1         0.0138
      60    H28     15.434564   22.425806   19.026841 H          1 MOL1         0.0794
      61    H29     16.068332   24.076913   18.988123 H          1 MOL1         0.0794
      62    O15     14.632240   23.706367   20.456619 O.3        1 MOL1        -0.5486
      63    H30     13.943355   24.050933   19.847258 H          1 MOL1         0.3769
      64    C19     23.774825   22.907725   20.587284 C.3        1 MOL1         0.2972
      65    H31     24.843663   23.006633   20.358068 H          1 MOL1         0.0751
      66    O16     23.424394   21.541457   20.903716 O.3        1 MOL1        -0.3740
      67    C20     23.350647   23.857945   21.736237 C.3        1 MOL1         0.1003
      68    H32     23.462983   24.883163   21.359483 H          1 MOL1         0.0783
      69    O17     24.172155   23.711478   22.903119 O.3        1 MOL1        -0.5519
      70    H33     23.974316   22.817058   23.278564 H          1 MOL1         0.3769
      71    C21     21.857300   23.641593   22.078884 C.3        1 MOL1         0.1053
      72    H34     21.741677   22.622763   22.471812 H          1 MOL1         0.0783
      73    O18     21.477913   24.594871   23.078687 O.3        1 MOL1        -0.5519
      74    H35     22.260221   24.665131   23.672421 H          1 MOL1         0.3769
      75    C22     20.958295   23.772021   20.813941 C.3        1 MOL1         0.1018
      76    H36     20.809905   24.836301   20.592923 H          1 MOL1         0.0783
      77    C23     21.558398   23.066323   19.562025 C.3        1 MOL1         0.1043
      78    H37     21.395543   21.988126   19.677856 H          1 MOL1         0.0783
      79    O19     22.984099   23.305998   19.448583 O.3        1 MOL1        -0.3740
      80    C24     20.878092   23.482084   18.234443 C.3        1 MOL1         0.0138
      81    H38     19.852220   23.089462   18.227809 H          1 MOL1         0.0794
      82    H39     21.414622   23.002097   17.405268 H          1 MOL1         0.0794
      83    O20     20.855636   24.902329   18.044576 O.3        1 MOL1        -0.5486
      84    H40     20.166937   25.272154   18.637241 H          1 MOL1         0.3769
      85    C25     24.702647   17.916772   22.407279 C.3        1 MOL1         0.2972
      86    H41     25.256848   17.084623   22.859668 H          1 MOL1         0.0751
      87    O21     23.499780   17.459022   21.755097 O.3        1 MOL1        -0.3740
      88    C26     24.323293   18.953832   23.492793 C.3        1 MOL1         0.1003
      89    H42     25.261082   19.306239   23.941806 H          1 MOL1         0.0783
      90    O22     23.499954   18.369946   24.517224 O.3        1 MOL1        -0.5519
      91    H43     23.621472   17.391338   24.461731 H          1 MOL1         0.3769
      92    C27     23.601739   20.169803   22.869493 C.3        1 MOL1         0.1053
      93    H44     22.626815   19.835419   22.500358 H          1 MOL1         0.0783
      94    O23     23.414882   21.150884   23.891925 O.3        1 MOL1        -0.5519
      95    H45     23.072145   20.641375   24.660844 H          1 MOL1         0.3769
      96    C28     24.372509   20.760082   21.659920 C.3        1 MOL1         0.1018
      97    H46     25.212789   21.363783   22.027120 H          1 MOL1         0.0783
      98    C29     24.889805   19.658675   20.692382 C.3        1 MOL1         0.1043
      99    H47     24.026290   19.253998   20.148665 H          1 MOL1         0.0783
     100    O24     25.526066   18.585692   21.429617 O.3        1 MOL1        -0.3740
     101    C30     25.886992   20.190032   19.635106 C.3        1 MOL1         0.0138
     102    H48     25.335419   20.817218   18.921659 H          1 MOL1         0.0794
     103    H49     26.291552   19.336475   19.074829 H          1 MOL1         0.0794
     104    O25     26.950193   20.948016   20.225908 O.3        1 MOL1        -0.5486
     105    H50     27.579195   21.187235   19.510465 H          1 MOL1         0.3769
     106    C31     21.385403   13.865684   21.405309 C.3        1 MOL1         0.2972
     107    H51     21.112601   12.816834   21.232713 H          1 MOL1         0.0751
     108    O26     20.225757   14.697028   21.599862 O.3        1 MOL1        -0.3740
     109    C32     22.248246   13.989493   22.683969 C.3        1 MOL1         0.1003
     110    H52     23.137824   13.361519   22.544726 H          1 MOL1         0.0783
     111    O27     21.515503   13.529135   23.831715 O.3        1 MOL1        -0.5519
     112    H53     20.564283   13.753854   23.677183 H          1 MOL1         0.3769
     113    C33     22.720012   15.449096   22.898257 C.3        1 MOL1         0.1053
     114    H54     21.837551   16.056352   23.137774 H          1 MOL1         0.0783
     115    O28     23.636674   15.474663   23.997779 O.3        1 MOL1        -0.5519
     116    H55     23.241543   14.870326   24.666892 H          1 MOL1         0.3769
     117    C34     23.370180   16.029824   21.609782 C.3        1 MOL1         0.1018
     118    H56     24.347323   15.557681   21.441087 H          1 MOL1         0.0783
     119    C35     22.484265   15.785841   20.360634 C.3        1 MOL1         0.1043
     120    H57     21.574762   16.392068   20.444213 H          1 MOL1         0.0783
     121    O29     22.152422   14.378721   20.297884 O.3        1 MOL1        -0.3740
     122    C36     23.201391   16.166648   19.046399 C.3        1 MOL1         0.0138
     123    H58     23.970781   15.414934   18.825167 H          1 MOL1         0.0794
     124    H59     23.708357   17.131017   19.179791 H          1 MOL1         0.0794
     125    O30     22.263375   16.264248   17.969263 O.3        1 MOL1        -0.5486
     126    H60     22.767687   16.452708   17.149823 H          1 MOL1         0.3769
     127    C1      20.651930   19.439003   18.014075 C.3        1 MOL1        -0.2400
     128    H1      20.530851   20.525993   18.076579 H          1 MOL1         0.0971
     129    H2      21.721659   19.204140   18.090814 H          1 MOL1         0.0971
     130    H3      20.308436   19.118603   17.022141 H          1 MOL1         0.0971
     131    C2      19.849113   18.726429   19.121049 C.3        1 MOL1        -0.1385
     132    H4      19.919682   17.640577   18.968644 H          1 MOL1         0.0960
     133    H5      18.787596   18.994284   19.033761 H          1 MOL1         0.0960
     134    C3      20.366516   19.085829   20.530437 C.3        1 MOL1        -0.1409
     135    H6      21.430918   18.825960   20.602637 H          1 MOL1         0.0960
     136    H7      20.295388   20.170135   20.689040 H          1 MOL1         0.0960
     137    C4      19.574422   18.348522   21.632770 C.3        1 MOL1        -0.1409
     138    H8      19.597252   17.269483   21.444412 H          1 MOL1         0.0960
     139    H9      18.521146   18.653872   21.593422 H          1 MOL1         0.0960
     140    C5      20.149977   18.623168   23.037256 C.3        1 MOL1        -0.1409
     141    H10     21.197408   18.302743   23.064178 H          1 MOL1         0.0960
     142    H11     20.140286   19.702596   23.243197 H          1 MOL1         0.0960
     143    C6      19.381272   17.871254   24.141241 C.3        1 MOL1        -0.1450
     144    H12     19.444467   16.790992   23.960255 H          1 MOL1         0.0960
     145    H13     18.318606   18.146701   24.113938 H          1 MOL1         0.0960
     146    C7      19.965083   18.185373   25.528025 C.3        1 MOL1         0.0172
     147    H14     21.024530   17.913284   25.551410 H          1 MOL1         0.0934
     148    H15     19.881407   19.256914   25.728739 H          1 MOL1         0.0934
     149    N1      19.262210   17.440576   26.643708 N.4        1 MOL1        -0.5956
     150    H16     19.663691   17.664000   27.560408 H          1 MOL1         0.3624
     151    H17     19.331748   16.424915   26.523529 H          1 MOL1         0.3624
     152    H18     18.265038   17.674504   26.685514 H          1 MOL1         0.3624
@<TRIPOS>BOND
    1     1     2    1
    2     1     3    1
    3     1     4    1
    4     4     5    1
    5     4     6    1
    6     6     7    1
    7     4     8    1
    8     8     9    1
    9     8    10    1
   10    10    11    1
   11     8    12    1
   12    12    13    1
   13    12    14    1
   14    14    15    1
   15     1    16    1
   16    14    16    1
   17    14    17    1
   18    17    18    1
   19    17    19    1
   20    17    20    1
   21    20    21    1
   22    22    23    1
   23    22    24    1
   24    22    25    1
   25    25    26    1
   26    25    27    1
   27    27    28    1
   28    25    29    1
   29    29    30    1
   30    29    31    1
   31    31    32    1
   32     3    33    1
   33    29    33    1
   34    33    34    1
   35    33    35    1
   36    35    36    1
   37    22    37    1
   38    35    37    1
   39    35    38    1
   40    38    39    1
   41    38    40    1
   42    38    41    1
   43    41    42    1
   44    43    44    1
   45    43    45    1
   46    43    46    1
   47    46    47    1
   48    46    48    1
   49    48    49    1
   50    46    50    1
   51    50    51    1
   52    50    52    1
   53    52    53    1
   54    24    54    1
   55    50    54    1
   56    54    55    1
   57    54    56    1
   58    56    57    1
   59    43    58    1
   60    56    58    1
   61    56    59    1
   62    59    60    1
   63    59    61    1
   64    59    62    1
   65    62    63    1
   66    64    65    1
   67    64    66    1
   68    64    67    1
   69    67    68    1
   70    67    69    1
   71    69    70    1
   72    67    71    1
   73    71    72    1
   74    71    73    1
   75    73    74    1
   76    45    75    1
   77    71    75    1
   78    75    76    1
   79    75    77    1
   80    77    78    1
   81    64    79    1
   82    77    79    1
   83    77    80    1
   84    80    81    1
   85    80    82    1
   86    80    83    1
   87    83    84    1
   88    85    86    1
   89    85    87    1
   90    85    88    1
   91    88    89    1
   92    88    90    1
   93    90    91    1
   94    88    92    1
   95    92    93    1
   96    92    94    1
   97    94    95    1
   98    66    96    1
   99    92    96    1
  100    96    97    1
  101    96    98    1
  102    98    99    1
  103    85   100    1
  104    98   100    1
  105    98   101    1
  106   101   102    1
  107   101   103    1
  108   101   104    1
  109   104   105    1
  110   106   107    1
  111    12   108    1
  112   106   108    1
  113   106   109    1
  114   109   110    1
  115   109   111    1
  116   111   112    1
  117   109   113    1
  118   113   114    1
  119   113   115    1
  120   115   116    1
  121    87   117    1
  122   113   117    1
  123   117   118    1
  124   117   119    1
  125   119   120    1
  126   106   121    1
  127   119   121    1
  128   119   122    1
  129   122   123    1
  130   122   124    1
  131   122   125    1
  132   125   126    1
  133   127   128    1
  134   127   129    1
  135   127   130    1
  136   127   131    1
  137   131   132    1
  138   131   133    1
  139   131   134    1
  140   134   135    1
  141   134   136    1
  142   134   137    1
  143   137   138    1
  144   137   139    1
  145   137   140    1
  146   140   141    1
  147   140   142    1
  148   140   143    1
  149   143   144    1
  150   143   145    1
  151   143   146    1
  152   146   147    1
  153   146   148    1
  154   146   149    1
  155   149   150    1
  156   149   151    1
  157   149   152    1
@<TRIPOS>SUBSTRUCTURE
       1 MOL1            1 RESIDUE      1      MOL     
       2 MOL1          152 RESIDUE      1      MOL     
@<SCITEGIC>MOL_PROPERTY
feprocess Rank
SciTegic.value.IntegerValue
1

@<SCITEGIC>MOL_PROPERTY
Conf_Id
SciTegic.value.IntegerValue
801

@<SCITEGIC>MOL_PROPERTY
Probability
SciTegic.value.DoubleValue
95.34

@<SCITEGIC>MOL_PROPERTY
G
SciTegic.value.DoubleValue
572.481

@<SCITEGIC>MOL_PROPERTY
E
SciTegic.value.DoubleValue
369.231

@<SCITEGIC>MOL_PROPERTY
-TS
SciTegic.value.DoubleValue
203.250

@<SCITEGIC>MOL_PROPERTY
U+W
SciTegic.value.DoubleValue
235.094

@<SCITEGIC>MOL_PROPERTY
U
SciTegic.value.DoubleValue
322.605

@<SCITEGIC>MOL_PROPERTY
W
SciTegic.value.DoubleValue
-87.509

@<SCITEGIC>MOL_PROPERTY
W(PB)
SciTegic.value.DoubleValue
-93.697

@<SCITEGIC>MOL_PROPERTY
W(SA)
SciTegic.value.DoubleValue
6.189

@<SCITEGIC>MOL_PROPERTY
Valence
SciTegic.value.DoubleValue
144.550

@<SCITEGIC>MOL_PROPERTY
Coulomb
SciTegic.value.DoubleValue
204.795

@<SCITEGIC>MOL_PROPERTY
VdW
SciTegic.value.DoubleValue
-26.740

@<SCITEGIC>MOL_PROPERTY
VdW6
SciTegic.value.DoubleValue
-181.149

@<SCITEGIC>MOL_PROPERTY
VdW12
SciTegic.value.DoubleValue
154.409

@<SCITEGIC>MOL_PROPERTY
Bond
SciTegic.value.DoubleValue
4.588

@<SCITEGIC>MOL_PROPERTY
Angle
SciTegic.value.DoubleValue
11.437

@<SCITEGIC>MOL_PROPERTY
Pdih
SciTegic.value.DoubleValue
128.526

@<SCITEGIC>MOL_PROPERTY
Idih
SciTegic.value.DoubleValue
0.000

@<SCITEGIC>MOL_PROPERTY
Tether
SciTegic.value.DoubleValue
0.000

@<TRIPOS>MOLECULE
CD_guest-s14_fast_vm2_rndm.mol2 : feprocess host+ligand conformer 2
         152         157           2
SMALL
USER_CHARGES
 
@<TRIPOS>ATOM
       1    C1      16.095958   15.034024   21.091181 C.3        1 MOL1         0.2972
       2    H1      15.008302   14.899300   21.029655 H          1 MOL1         0.0751
       3    O1      16.453584   16.428943   21.205481 O.3        1 MOL1        -0.3740
       4    C2      16.695430   14.246504   22.285493 C.3        1 MOL1         0.1003
       5    H2      16.529267   13.180098   22.084004 H          1 MOL1         0.0783
       6    O2      16.059816   14.582475   23.527128 O.3        1 MOL1        -0.5519
       7    H3      16.194801   15.552728   23.672557 H          1 MOL1         0.3769
       8    C3      18.223770   14.480474   22.363718 C.3        1 MOL1         0.1053
       9    H4      18.398234   15.538478   22.596065 H          1 MOL1         0.0783
      10    O3      18.777044   13.664727   23.400251 O.3        1 MOL1        -0.5519
      11    H5      18.156189   13.756667   24.157412 H          1 MOL1         0.3769
      12    C4      18.906340   14.149778   21.010778 C.3        1 MOL1         0.1018
      13    H6      18.958106   13.056884   20.919089 H          1 MOL1         0.0783
      14    C5      18.150102   14.739403   19.785518 C.3        1 MOL1         0.1043
      15    H7      18.329041   15.819942   19.762276 H          1 MOL1         0.0783
      16    O4      16.723293   14.510627   19.901677 O.3        1 MOL1        -0.3740
      17    C6      18.633380   14.164230   18.432631 C.3        1 MOL1         0.0138
      18    H8      19.644478   14.544402   18.233655 H          1 MOL1         0.0794
      19    H9      17.979247   14.543796   17.636341 H          1 MOL1         0.0794
      20    O5      18.644589   12.730963   18.427986 O.3        1 MOL1        -0.5486
      21    H10     18.912890   12.438353   17.529755 H          1 MOL1         0.3769
      22    C7      15.047656   20.235445   21.948748 C.3        1 MOL1         0.2972
      23    H11     14.472781   21.134036   22.205458 H          1 MOL1         0.0751
      24    O6      16.272806   20.562788   21.261464 O.3        1 MOL1        -0.3740
      25    C8      15.395166   19.430579   23.226418 C.3        1 MOL1         0.1003
      26    H12     14.446606   19.136129   23.694128 H          1 MOL1         0.0783
      27    O7      16.162413   20.213150   24.157823 O.3        1 MOL1        -0.5519
      28    H13     15.993911   21.161990   23.943473 H          1 MOL1         0.3769
      29    C9      16.176131   18.149918   22.860019 C.3        1 MOL1         0.1053
      30    H14     17.142658   18.461923   22.455261 H          1 MOL1         0.0783
      31    O8      16.377393   17.379701   24.046927 O.3        1 MOL1        -0.5519
      32    H15     16.593848   18.049350   24.734287 H          1 MOL1         0.3769
      33    C10     15.462115   17.313846   21.768570 C.3        1 MOL1         0.1018
      34    H16     14.631190   16.765399   22.231881 H          1 MOL1         0.0783
      35    C11     14.939802   18.191050   20.594466 C.3        1 MOL1         0.1043
      36    H17     15.804833   18.502091   19.994420 H          1 MOL1         0.0783
      37    O9      14.266604   19.374924   21.092910 O.3        1 MOL1        -0.3740
      38    C12     13.975351   17.437109   19.647892 C.3        1 MOL1         0.0138
      39    H18     14.553923   16.695123   19.080930 H          1 MOL1         0.0794
      40    H19     13.563872   18.152938   18.923722 H          1 MOL1         0.0794
      41    O10     12.917093   16.784824   20.361148 O.3        1 MOL1        -0.5486
      42    H20     12.307635   16.393580   19.697648 H          1 MOL1         0.3769
      43    C13     18.570485   23.973742   20.523889 C.3        1 MOL1         0.2972
      44    H21     18.922853   24.955082   20.180658 H          1 MOL1         0.0751
      45    O11     19.655308   23.155087   21.007838 O.3        1 MOL1        -0.3740
      46    C14     17.539329   24.129075   21.670790 C.3        1 MOL1         0.1003
      47    H22     16.696145   24.709130   21.273500 H          1 MOL1         0.0783
      48    O12     18.102388   24.831706   22.790187 O.3        1 MOL1        -0.5519
      49    H23     18.986432   24.428730   22.985397 H          1 MOL1         0.3769
      50    C15     16.997359   22.747998   22.115712 C.3        1 MOL1         0.1053
      51    H24     17.826637   22.186429   22.563544 H          1 MOL1         0.0783
      52    O13     15.970007   22.953748   23.091323 O.3        1 MOL1        -0.5519
      53    H25     16.298851   23.695382   23.649371 H          1 MOL1         0.3769
      54    C16     16.464115   21.943788   20.895672 C.3        1 MOL1         0.1018
      55    H26     15.526108   22.396176   20.549133 H          1 MOL1         0.0783
      56    C17     17.487122   21.929884   19.727639 C.3        1 MOL1         0.1043
      57    H27     18.354213   21.335304   20.038539 H          1 MOL1         0.0783
      58    O14     17.921664   23.278475   19.437861 O.3        1 MOL1        -0.3740
      59    C18     16.942229   21.289659   18.426439 C.3        1 MOL1         0.0138
      60    H28     16.926569   20.199234   18.553513 H          1 MOL1         0.0794
      61    H29     17.642004   21.510185   17.609567 H          1 MOL1         0.0794
      62    O15     15.629429   21.751684   18.087393 O.3        1 MOL1        -0.5486
      63    H30     15.003301   21.356743   18.731849 H          1 MOL1         0.3769
      64    C19     23.735354   22.970597   21.387360 C.3        1 MOL1         0.2972
      65    H31     24.823949   23.103183   21.434729 H          1 MOL1         0.0751
      66    O16     23.372768   21.569900   21.331422 O.3        1 MOL1        -0.3740
      67    C20     23.028837   23.661856   22.583340 C.3        1 MOL1         0.1003
      68    H32     23.175670   24.743311   22.463115 H          1 MOL1         0.0783
      69    O17     23.578576   23.267524   23.847638 O.3        1 MOL1        -0.5519
      70    H33     23.390767   22.301718   23.953095 H          1 MOL1         0.3769
      71    C21     21.509401   23.380597   22.518046 C.3        1 MOL1         0.1053
      72    H34     21.356934   22.301090   22.631313 H          1 MOL1         0.0783
      73    O18     20.841299   24.070778   23.578475 O.3        1 MOL1        -0.5519
      74    H35     21.418407   23.951975   24.365568 H          1 MOL1         0.3769
      75    C22     20.927341   23.818868   21.149656 C.3        1 MOL1         0.1018
      76    H36     20.819790   24.911557   21.167180 H          1 MOL1         0.0783
      77    C23     21.806429   23.394127   19.934266 C.3        1 MOL1         0.1043
      78    H37     21.651613   22.324703   19.759148 H          1 MOL1         0.0783
      79    O19     23.214680   23.611105   20.203745 O.3        1 MOL1        -0.3740
      80    C24     21.437801   24.124017   18.620522 C.3        1 MOL1         0.0138
      81    H38     20.464149   23.750638   18.275346 H          1 MOL1         0.0794
      82    H39     22.178252   23.859885   17.853643 H          1 MOL1         0.0794
      83    O20     21.380937   25.546019   18.789544 O.3        1 MOL1        -0.5486
      84    H40     21.213383   25.944350   17.907553 H          1 MOL1         0.3769
      85    C25     24.658271   17.718816   22.246443 C.3        1 MOL1         0.2972
      86    H41     25.220614   16.843546   22.594274 H          1 MOL1         0.0751
      87    O21     23.560431   17.340328   21.389053 O.3        1 MOL1        -0.3740
      88    C26     24.101109   18.522427   23.449945 C.3        1 MOL1         0.1003
      89    H42     24.961934   18.843824   24.050851 H          1 MOL1         0.0783
      90    O22     23.222615   17.733132   24.268923 O.3        1 MOL1        -0.5519
      91    H43     23.482421   16.789182   24.143146 H          1 MOL1         0.3769
      92    C27     23.354756   19.781828   22.960219 C.3        1 MOL1         0.1053
      93    H44     22.481362   19.449215   22.389226 H          1 MOL1         0.0783
      94    O23     22.932840   20.524204   24.106101 O.3        1 MOL1        -0.5519
      95    H45     22.637548   19.831515   24.738932 H          1 MOL1         0.3769
      96    C28     24.237714   20.640483   22.019647 C.3        1 MOL1         0.1018
      97    H46     25.000958   21.153803   22.619541 H          1 MOL1         0.0783
      98    C29     24.918727   19.774133   20.922165 C.3        1 MOL1         0.1043
      99    H47     24.145864   19.454425   20.211336 H          1 MOL1         0.0783
     100    O24     25.533016   18.597632   21.506430 O.3        1 MOL1        -0.3740
     101    C30     25.994714   20.542482   20.117987 C.3        1 MOL1         0.0138
     102    H48     25.490573   21.283461   19.482749 H          1 MOL1         0.0794
     103    H49     26.506559   19.835070   19.451870 H          1 MOL1         0.0794
     104    O25     26.941154   21.199265   20.970850 O.3        1 MOL1        -0.5486
     105    H50     27.630030   21.600986   20.397497 H          1 MOL1         0.3769
     106    C31     21.317449   13.894308   20.663238 C.3        1 MOL1         0.2972
     107    H51     20.973169   12.900064   20.350908 H          1 MOL1         0.0751
     108    O26     20.217194   14.753503   21.033165 O.3        1 MOL1        -0.3740
     109    C32     22.269297   13.785820   21.879408 C.3        1 MOL1         0.1003
     110    H52     23.135538   13.191000   21.561259 H          1 MOL1         0.0783
     111    O27     21.634654   13.125609   22.985851 O.3        1 MOL1        -0.5519
     112    H53     20.713874   13.484007   23.061687 H          1 MOL1         0.3769
     113    C33     22.785657   15.183893   22.301295 C.3        1 MOL1         0.1053
     114    H54     21.931060   15.770622   22.665345 H          1 MOL1         0.0783
     115    O28     23.738560   15.004957   23.355091 O.3        1 MOL1        -0.5519
     116    H55     23.365360   14.279658   23.907409 H          1 MOL1         0.3769
     117    C34     23.415785   15.933926   21.090414 C.3        1 MOL1         0.1018
     118    H56     24.386303   15.479650   20.853818 H          1 MOL1         0.0783
     119    C35     22.502403   15.871751   19.835423 C.3        1 MOL1         0.1043
     120    H57     21.626218   16.496613   20.029889 H          1 MOL1         0.0783
     121    O29     22.058959   14.516398   19.592599 O.3        1 MOL1        -0.3740
     122    C36     23.170422   16.416209   18.548585 C.3        1 MOL1         0.0138
     123    H58     23.247489   17.508642   18.628333 H          1 MOL1         0.0794
     124    H59     22.512767   16.199532   17.696432 H          1 MOL1         0.0794
     125    O30     24.469583   15.857178   18.321183 O.3        1 MOL1        -0.5486
     126    H60     25.080914   16.253403   18.978402 H          1 MOL1         0.3769
     127    C1      20.616334   19.479247   17.881041 C.3        1 MOL1        -0.2400
     128    H1      20.803522   18.484667   17.456160 H          1 MOL1         0.0971
     129    H2      19.624362   19.810756   17.549136 H          1 MOL1         0.0971
     130    H3      21.360011   20.169840   17.462739 H          1 MOL1         0.0971
     131    C2      20.705932   19.451744   19.420319 C.3        1 MOL1        -0.1385
     132    H4      20.550581   20.465773   19.804713 H          1 MOL1         0.0960
     133    H5      21.716949   19.148771   19.725179 H          1 MOL1         0.0960
     134    C3      19.661834   18.497933   20.041678 C.3        1 MOL1        -0.1409
     135    H6      18.647689   18.866236   19.837040 H          1 MOL1         0.0960
     136    H7      19.734189   17.519825   19.552274 H          1 MOL1         0.0960
     137    C4      19.844824   18.311963   21.566256 C.3        1 MOL1        -0.1409
     138    H8      20.838193   17.895285   21.777471 H          1 MOL1         0.0960
     139    H9      19.123774   17.563362   21.915619 H          1 MOL1         0.0960
     140    C5      19.652022   19.625474   22.358653 C.3        1 MOL1        -0.1409
     141    H10     20.432840   20.344877   22.087398 H          1 MOL1         0.0960
     142    H11     18.697584   20.085010   22.080705 H          1 MOL1         0.0960
     143    C6      19.676940   19.398999   23.883331 C.3        1 MOL1        -0.1450
     144    H12     20.613473   18.906704   24.174733 H          1 MOL1         0.0960
     145    H13     18.860886   18.724481   24.170164 H          1 MOL1         0.0960
     146    C7      19.530179   20.732170   24.635959 C.3        1 MOL1         0.0172
     147    H14     20.381144   21.380453   24.408413 H          1 MOL1         0.0934
     148    H15     18.614520   21.235122   24.313755 H          1 MOL1         0.0934
     149    N1      19.455187   20.561097   26.137346 N.4        1 MOL1        -0.5956
     150    H16     20.285083   20.089667   26.509718 H          1 MOL1         0.3624
     151    H17     18.636404   20.006850   26.408265 H          1 MOL1         0.3624
     152    H18     19.377981   21.464400   26.615927 H          1 MOL1         0.3624
@<TRIPOS>BOND
    1     1     2    1
    2     1     3    1
    3     1     4    1
    4     4     5    1
    5     4     6    1
    6     6     7    1
    7     4     8    1
    8     8     9    1
    9     8    10    1
   10    10    11    1
   11     8    12    1
   12    12    13    1
   13    12    14    1
   14    14    15    1
   15     1    16    1
   16    14    16    1
   17    14    17    1
   18    17    18    1
   19    17    19    1
   20    17    20    1
   21    20    21    1
   22    22    23    1
   23    22    24    1
   24    22    25    1
   25    25    26    1
   26    25    27    1
   27    27    28    1
   28    25    29    1
   29    29    30    1
   30    29    31    1
   31    31    32    1
   32     3    33    1
   33    29    33    1
   34    33    34    1
   35    33    35    1
   36    35    36    1
   37    22    37    1
   38    35    37    1
   39    35    38    1
   40    38    39    1
   41    38    40    1
   42    38    41    1
   43    41    42    1
   44    43    44    1
   45    43    45    1
   46    43    46    1
   47    46    47    1
   48    46    48    1
   49    48    49    1
   50    46    50    1
   51    50    51    1
   52    50    52    1
   53    52    53    1
   54    24    54    1
   55    50    54    1
   56    54    55    1
   57    54    56    1
   58    56    57    1
   59    43    58    1
   60    56    58    1
   61    56    59    1
   62    59    60    1
   63    59    61    1
   64    59    62    1
   65    62    63    1
   66    64    65    1
   67    64    66    1
   68    64    67    1
   69    67    68    1
   70    67    69    1
   71    69    70    1
   72    67    71    1
   73    71    72    1
   74    71    73    1
   75    73    74    1
   76    45    75    1
   77    71    75    1
   78    75    76    1
   79    75    77    1
   80    77    78    1
   81    64    79    1
   82    77    79    1
   83    77    80    1
   84    80    81    1
   85    80    82    1
   86    80    83    1
   87    83    84    1
   88    85    86    1
   89    85    87    1
   90    85    88    1
   91    88    89    1
   92    88    90    1
   93    90    91    1
   94    88    92    1
   95    92    93    1
   96    92    94    1
   97    94    95    1
   98    66    96    1
   99    92    96    1
  100    96    97    1
  101    96    98    1
  102    98    99    1
  103    85   100    1
  104    98   100    1
  105    98   101    1
  106   101   102    1
  107   101   103    1
  108   101   104    1
  109   104   105    1
  110   106   107    1
  111    12   108    1
  112   106   108    1
  113   106   109    1
  114   109   110    1
  115   109   111    1
  116   111   112    1
  117   109   113    1
  118   113   114    1
  119   113   115    1
  120   115   116    1
  121    87   117    1
  122   113   117    1
  123   117   118    1
  124   117   119    1
  125   119   120    1
  126   106   121    1
  127   119   121    1
  128   119   122    1
  129   122   123    1
  130   122   124    1
  131   122   125    1
  132   125   126    1
  133   127   128    1
  134   127   129    1
  135   127   130    1
  136   127   131    1
  137   131   132    1
  138   131   133    1
  139   131   134    1
  140   134   135    1
  141   134   136    1
  142   134   137    1
  143   137   138    1
  144   137   139    1
  145   137   140    1
  146   140   141    1
  147   140   142    1
  148   140   143    1
  149   143   144    1
  150   143   145    1
  151   143   146    1
  152   146   147    1
  153   146   148    1
  154   146   149    1
  155   149   150    1
  156   149   151    1
  157   149   152    1
@<TRIPOS>SUBSTRUCTURE
       1 MOL1            1 RESIDUE      1      MOL     
       2 MOL1          152 RESIDUE      1      MOL     
@<SCITEGIC>MOL_PROPERTY
feprocess Rank
SciTegic.value.IntegerValue
2

@<SCITEGIC>MOL_PROPERTY
Conf_Id
SciTegic.value.IntegerValue
564

@<SCITEGIC>MOL_PROPERTY
Probability
SciTegic.value.DoubleValue
3.11

@<SCITEGIC>MOL_PROPERTY
G
SciTegic.value.DoubleValue
574.521

@<SCITEGIC>MOL_PROPERTY
E
SciTegic.value.DoubleValue
370.537

@<SCITEGIC>MOL_PROPERTY
-TS
SciTegic.value.DoubleValue
203.984

@<SCITEGIC>MOL_PROPERTY
U+W
SciTegic.value.DoubleValue
236.401

@<SCITEGIC>MOL_PROPERTY
U
SciTegic.value.DoubleValue
325.580

@<SCITEGIC>MOL_PROPERTY
W
SciTegic.value.DoubleValue
-89.179

@<SCITEGIC>MOL_PROPERTY
W(PB)
SciTegic.value.DoubleValue
-95.356

@<SCITEGIC>MOL_PROPERTY
W(SA)
SciTegic.value.DoubleValue
6.177

@<SCITEGIC>MOL_PROPERTY
Valence
SciTegic.value.DoubleValue
146.176

@<SCITEGIC>MOL_PROPERTY
Coulomb
SciTegic.value.DoubleValue
206.164

@<SCITEGIC>MOL_PROPERTY
VdW
SciTegic.value.DoubleValue
-26.760

@<SCITEGIC>MOL_PROPERTY
VdW6
SciTegic.value.DoubleValue
-184.801

@<SCITEGIC>MOL_PROPERTY
VdW12
SciTegic.value.DoubleValue
158.041

@<SCITEGIC>MOL_PROPERTY
Bond
SciTegic.value.DoubleValue
4.799

@<SCITEGIC>MOL_PROPERTY
Angle
SciTegic.value.DoubleValue
12.293

@<SCITEGIC>MOL_PROPERTY
Pdih
SciTegic.value.DoubleValue
129.083

@<SCITEGIC>MOL_PROPERTY
Idih
SciTegic.value.DoubleValue
0.000

@<SCITEGIC>MOL_PROPERTY
Tether
SciTegic.value.DoubleValue
0.000

@<TRIPOS>MOLECULE
CD_guest-s14_fast_vm2_rndm.mol2 : feprocess host+ligand conformer 3
         152         157           2
SMALL
USER_CHARGES
 
@<TRIPOS>ATOM
       1    C1      16.276967   15.250919   20.494878 C.3        1 MOL1         0.2972
       2    H1      15.286245   15.016463   20.084541 H          1 MOL1         0.0751
       3    O1      16.359309   16.613424   20.956069 O.3        1 MOL1        -0.3740
       4    C2      16.599046   14.338719   21.707094 C.3        1 MOL1         0.1003
       5    H2      16.572148   13.299369   21.354745 H          1 MOL1         0.0783
       6    O2      15.625477   14.509837   22.750364 O.3        1 MOL1        -0.5519
       7    H3      15.447939   15.480622   22.835840 H          1 MOL1         0.3769
       8    C3      18.022989   14.625679   22.246559 C.3        1 MOL1         0.1053
       9    H4      18.028522   15.642102   22.659476 H          1 MOL1         0.0783
      10    O3      18.336223   13.686157   23.280285 O.3        1 MOL1        -0.5519
      11    H5      17.512367   13.613922   23.813813 H          1 MOL1         0.3769
      12    C4      19.066291   14.556181   21.098664 C.3        1 MOL1         0.1018
      13    H6      19.179428   13.511869   20.779481 H          1 MOL1         0.0783
      14    C5      18.638146   15.415054   19.881299 C.3        1 MOL1         0.1043
      15    H7      18.652800   16.470148   20.181698 H          1 MOL1         0.0783
      16    O4      17.295017   15.048448   19.489594 O.3        1 MOL1        -0.3740
      17    C6      19.578181   15.278580   18.656516 C.3        1 MOL1         0.0138
      18    H8      20.453610   15.920195   18.819117 H          1 MOL1         0.0794
      19    H9      19.057118   15.662688   17.769569 H          1 MOL1         0.0794
      20    O5      20.012002   13.932102   18.430424 O.3        1 MOL1        -0.5486
      21    H10     20.618418   13.692535   19.165268 H          1 MOL1         0.3769
      22    C7      14.556916   20.286128   20.817927 C.3        1 MOL1         0.2972
      23    H11     13.923888   21.175689   20.704927 H          1 MOL1         0.0751
      24    O6      15.946062   20.644797   21.002534 O.3        1 MOL1        -0.3740
      25    C8      14.071253   19.393735   21.991547 C.3        1 MOL1         0.1003
      26    H12     13.079793   19.010872   21.716127 H          1 MOL1         0.0783
      27    O7      13.953227   20.124683   23.220094 O.3        1 MOL1        -0.5519
      28    H13     14.865888   20.414428   23.471180 H          1 MOL1         0.3769
      29    C9      15.018523   18.181892   22.154202 C.3        1 MOL1         0.1053
      30    H14     16.007076   18.558230   22.447088 H          1 MOL1         0.0783
      31    O8      14.520099   17.303245   23.168319 O.3        1 MOL1        -0.5519
      32    H15     14.253215   17.890512   23.910090 H          1 MOL1         0.3769
      33    C10     15.165258   17.405963   20.821500 C.3        1 MOL1         0.1018
      34    H16     14.269168   16.785230   20.689818 H          1 MOL1         0.0783
      35    C11     15.362627   18.327814   19.583114 C.3        1 MOL1         0.1043
      36    H17     16.394644   18.692267   19.602812 H          1 MOL1         0.0783
      37    O9      14.469425   19.468607   19.632600 O.3        1 MOL1        -0.3740
      38    C12     15.158702   17.603784   18.230689 C.3        1 MOL1         0.0138
      39    H18     16.001186   16.918169   18.069777 H          1 MOL1         0.0794
      40    H19     15.188689   18.350312   17.425781 H          1 MOL1         0.0794
      41    O10     13.925029   16.875971   18.188497 O.3        1 MOL1        -0.5486
      42    H20     13.834889   16.493966   17.288262 H          1 MOL1         0.3769
      43    C13     18.515451   23.673129   22.189411 C.3        1 MOL1         0.2972
      44    H21     18.965632   24.596132   22.575838 H          1 MOL1         0.0751
      45    O11     19.478716   22.875363   21.468427 O.3        1 MOL1        -0.3740
      46    C14     17.934503   22.831307   23.354225 C.3        1 MOL1         0.1003
      47    H22     17.180046   23.451903   23.855151 H          1 MOL1         0.0783
      48    O12     18.949194   22.463373   24.303221 O.3        1 MOL1        -0.5519
      49    H23     19.693955   23.102221   24.192472 H          1 MOL1         0.3769
      50    C15     17.237293   21.559843   22.821426 C.3        1 MOL1         0.1053
      51    H24     18.008018   20.911323   22.395044 H          1 MOL1         0.0783
      52    O13     16.607087   20.893852   23.917604 O.3        1 MOL1        -0.5519
      53    H25     17.279323   20.920239   24.634947 H          1 MOL1         0.3769
      54    C16     16.214646   21.879316   21.701109 C.3        1 MOL1         0.1018
      55    H26     15.309899   22.301236   22.158553 H          1 MOL1         0.0783
      56    C17     16.785952   22.869156   20.646745 C.3        1 MOL1         0.1043
      57    H27     17.533172   22.335448   20.046162 H          1 MOL1         0.0783
      58    O14     17.425487   23.993209   21.299335 O.3        1 MOL1        -0.3740
      59    C18     15.715998   23.411053   19.668890 C.3        1 MOL1         0.0138
      60    H28     15.412996   22.595501   18.998301 H          1 MOL1         0.0794
      61    H29     16.173643   24.192330   19.047253 H          1 MOL1         0.0794
      62    O15     14.567620   23.927094   20.353813 O.3        1 MOL1        -0.5486
      63    H30     13.971851   24.322854   19.680732 H          1 MOL1         0.3769
      64    C19     23.615446   22.752859   20.956028 C.3        1 MOL1         0.2972
      65    H31     24.662173   22.985312   20.724650 H          1 MOL1         0.0751
      66    O16     23.426489   21.353332   21.248539 O.3        1 MOL1        -0.3740
      67    C20     23.142394   23.576254   22.179052 C.3        1 MOL1         0.1003
      68    H32     23.226495   24.637234   21.909516 H          1 MOL1         0.0783
      69    O17     23.965092   23.321441   23.328436 O.3        1 MOL1        -0.5519
      70    H33     24.176800   22.353572   23.337593 H          1 MOL1         0.3769
      71    C21     21.656118   23.287412   22.497804 C.3        1 MOL1         0.1053
      72    H34     21.573098   22.239389   22.815234 H          1 MOL1         0.0783
      73    O18     21.245339   24.150060   23.564479 O.3        1 MOL1        -0.5519
      74    H35     22.014668   24.169208   24.178985 H          1 MOL1         0.3769
      75    C22     20.766493   23.487489   21.237647 C.3        1 MOL1         0.1018
      76    H36     20.663178   24.560340   21.027679 H          1 MOL1         0.0783
      77    C23     21.364307   22.786204   19.986187 C.3        1 MOL1         0.1043
      78    H37     21.255083   21.704928   20.119481 H          1 MOL1         0.0783
      79    O19     22.771527   23.101484   19.840786 O.3        1 MOL1        -0.3740
      80    C24     20.639439   23.165101   18.672861 C.3        1 MOL1         0.0138
      81    H38     19.616519   22.768526   18.713956 H          1 MOL1         0.0794
      82    H39     21.150621   22.672429   17.835208 H          1 MOL1         0.0794
      83    O20     20.600625   24.582618   18.467470 O.3        1 MOL1        -0.5486
      84    H40     20.159916   24.748936   17.606306 H          1 MOL1         0.3769
      85    C25     25.207101   17.632737   21.225998 C.3        1 MOL1         0.2972
      86    H41     25.853462   16.749489   21.142021 H          1 MOL1         0.0751
      87    O21     23.819323   17.264839   21.387160 O.3        1 MOL1        -0.3740
      88    C26     25.637271   18.536734   22.409829 C.3        1 MOL1         0.1003
      89    H42     26.641174   18.916483   22.178846 H          1 MOL1         0.0783
      90    O22     25.693517   17.814143   23.648090 O.3        1 MOL1        -0.5519
      91    H43     24.786951   17.454127   23.819530 H          1 MOL1         0.3769
      92    C27     24.683776   19.750889   22.519291 C.3        1 MOL1         0.1053
      93    H44     23.681943   19.380926   22.774993 H          1 MOL1         0.0783
      94    O23     25.148764   20.630897   23.546480 O.3        1 MOL1        -0.5519
      95    H45     25.399310   20.042649   24.293798 H          1 MOL1         0.3769
      96    C28     24.596652   20.513727   21.172123 C.3        1 MOL1         0.1018
      97    H46     25.518722   21.097230   21.054512 H          1 MOL1         0.0783
      98    C29     24.416853   19.569913   19.946321 C.3        1 MOL1         0.1043
      99    H47     23.389857   19.190562   19.949658 H          1 MOL1         0.0783
     100    O24     25.320225   18.439962   20.034365 O.3        1 MOL1        -0.3740
     101    C30     24.629199   20.268379   18.580952 C.3        1 MOL1         0.0138
     102    H48     23.795539   20.961538   18.404441 H          1 MOL1         0.0794
     103    H49     24.586002   19.504524   17.793290 H          1 MOL1         0.0794
     104    O25     25.874758   20.973310   18.508218 O.3        1 MOL1        -0.5486
     105    H50     25.738895   21.864138   18.893415 H          1 MOL1         0.3769
     106    C31     21.217355   14.173602   22.184127 C.3        1 MOL1         0.2972
     107    H51     20.715325   13.233990   22.447982 H          1 MOL1         0.0751
     108    O26     20.314116   15.104524   21.555814 O.3        1 MOL1        -0.3740
     109    C32     21.795446   14.844605   23.451871 C.3        1 MOL1         0.1003
     110    H52     22.536142   14.157175   23.880821 H          1 MOL1         0.0783
     111    O27     20.762394   15.099189   24.419052 O.3        1 MOL1        -0.5519
     112    H53     19.957094   14.612771   24.118449 H          1 MOL1         0.3769
     113    C33     22.509116   16.162980   23.079210 C.3        1 MOL1         0.1053
     114    H54     21.747277   16.855605   22.710895 H          1 MOL1         0.0783
     115    O28     23.120098   16.707196   24.250835 O.3        1 MOL1        -0.5519
     116    H55     22.437786   16.601470   24.951955 H          1 MOL1         0.3769
     117    C34     23.550621   15.962587   21.947708 C.3        1 MOL1         0.1018
     118    H56     24.450588   15.501049   22.375456 H          1 MOL1         0.0783
     119    C35     23.004372   15.093287   20.777943 C.3        1 MOL1         0.1043
     120    H57     22.295367   15.706991   20.208299 H          1 MOL1         0.0783
     121    O29     22.310764   13.921759   21.277278 O.3        1 MOL1        -0.3740
     122    C36     24.102515   14.631754   19.790304 C.3        1 MOL1         0.0138
     123    H58     24.452337   15.506343   19.225108 H          1 MOL1         0.0794
     124    H59     23.655414   13.934598   19.068994 H          1 MOL1         0.0794
     125    O30     25.207781   14.014317   20.461768 O.3        1 MOL1        -0.5486
     126    H60     25.825235   13.680591   19.774687 H          1 MOL1         0.3769
     127    C1      19.213470   18.550544   24.781265 C.3        1 MOL1        -0.2400
     128    H1      20.153386   18.234474   25.252065 H          1 MOL1         0.0971
     129    H2      19.035654   19.600742   25.045384 H          1 MOL1         0.0971
     130    H3      18.402796   17.948083   25.210819 H          1 MOL1         0.0971
     131    C2      19.276164   18.364754   23.252238 C.3        1 MOL1        -0.1385
     132    H4      18.295590   18.596177   22.818866 H          1 MOL1         0.0960
     133    H5      19.481498   17.311022   23.028827 H          1 MOL1         0.0960
     134    C3      20.369413   19.252527   22.617067 C.3        1 MOL1        -0.1409
     135    H6      21.323833   19.062611   23.125753 H          1 MOL1         0.0960
     136    H7      20.144032   20.311844   22.795212 H          1 MOL1         0.0960
     137    C4      20.555057   19.001880   21.102469 C.3        1 MOL1        -0.1409
     138    H8      20.769165   17.940052   20.921254 H          1 MOL1         0.0960
     139    H9      21.442820   19.554800   20.781662 H          1 MOL1         0.0960
     140    C5      19.348699   19.450306   20.246134 C.3        1 MOL1        -0.1409
     141    H10     18.464799   18.853509   20.503628 H          1 MOL1         0.0960
     142    H11     19.104484   20.492728   20.480449 H          1 MOL1         0.0960
     143    C6      19.640617   19.331567   18.734776 C.3        1 MOL1        -0.1450
     144    H12     19.832029   18.283238   18.474547 H          1 MOL1         0.0960
     145    H13     20.552036   19.893054   18.490683 H          1 MOL1         0.0960
     146    C7      18.472689   19.869338   17.890147 C.3        1 MOL1         0.0172
     147    H14     17.572732   19.283412   18.087554 H          1 MOL1         0.0934
     148    H15     18.271514   20.909764   18.158656 H          1 MOL1         0.0934
     149    N1      18.743066   19.814583   16.401057 N.4        1 MOL1        -0.5956
     150    H16     18.910343   18.856280   16.078094 H          1 MOL1         0.3624
     151    H17     19.565337   20.368049   16.140534 H          1 MOL1         0.3624
     152    H18     17.953536   20.179318   15.857300 H          1 MOL1         0.3624
@<TRIPOS>BOND
    1     1     2    1
    2     1     3    1
    3     1     4    1
    4     4     5    1
    5     4     6    1
    6     6     7    1
    7     4     8    1
    8     8     9    1
    9     8    10    1
   10    10    11    1
   11     8    12    1
   12    12    13    1
   13    12    14    1
   14    14    15    1
   15     1    16    1
   16    14    16    1
   17    14    17    1
   18    17    18    1
   19    17    19    1
   20    17    20    1
   21    20    21    1
   22    22    23    1
   23    22    24    1
   24    22    25    1
   25    25    26    1
   26    25    27    1
   27    27    28    1
   28    25    29    1
   29    29    30    1
   30    29    31    1
   31    31    32    1
   32     3    33    1
   33    29    33    1
   34    33    34    1
   35    33    35    1
   36    35    36    1
   37    22    37    1
   38    35    37    1
   39    35    38    1
   40    38    39    1
   41    38    40    1
   42    38    41    1
   43    41    42    1
   44    43    44    1
   45    43    45    1
   46    43    46    1
   47    46    47    1
   48    46    48    1
   49    48    49    1
   50    46    50    1
   51    50    51    1
   52    50    52    1
   53    52    53    1
   54    24    54    1
   55    50    54    1
   56    54    55    1
   57    54    56    1
   58    56    57    1
   59    43    58    1
   60    56    58    1
   61    56    59    1
   62    59    60    1
   63    59    61    1
   64    59    62    1
   65    62    63    1
   66    64    65    1
   67    64    66    1
   68    64    67    1
   69    67    68    1
   70    67    69    1
   71    69    70    1
   72    67    71    1
   73    71    72    1
   74    71    73    1
   75    73    74    1
   76    45    75    1
   77    71    75    1
   78    75    76    1
   79    75    77    1
   80    77    78    1
   81    64    79    1
   82    77    79    1
   83    77    80    1
   84    80    81    1
   85    80    82    1
   86    80    83    1
   87    83    84    1
   88    85    86    1
   89    85    87    1
   90    85    88    1
   91    88    89    1
   92    88    90    1
   93    90    91    1
   94    88    92    1
   95    92    93    1
   96    92    94    1
   97    94    95    1
   98    66    96    1
   99    92    96    1
  100    96    97    1
  101    96    98    1
  102    98    99    1
  103    85   100    1
  104    98   100    1
  105    98   101    1
  106   101   102    1
  107   101   103    1
  108   101   104    1
  109   104   105    1
  110   106   107    1
  111    12   108    1
  112   106   108    1
  113   106   109    1
  114   109   110    1
  115   109   111    1
  116   111   112    1
  117   109   113    1
  118   113   114    1
  119   113   115    1
  120   115   116    1
  121    87   117    1
  122   113   117    1
  123   117   118    1
  124   117   119    1
  125   119   120    1
  126   106   121    1
  127   119   121    1
  128   119   122    1
  129   122   123    1
  130   122   124    1
  131   122   125    1
  132   125   126    1
  133   127   128    1
  134   127   129    1
  135   127   130    1
  136   127   131    1
  137   131   132    1
  138   131   133    1
  139   131   134    1
  140   134   135    1
  141   134   136    1
  142   134   137    1
  143   137   138    1
  144   137   139    1
  145   137   140    1
  146   140   141    1
  147   140   142    1
  148   140   143    1
  149   143   144    1
  150   143   145    1
  151   143   146    1
  152   146   147    1
  153   146   148    1
  154   146   149    1
  155   149   150    1
  156   149   151    1
  157   149   152    1
@<TRIPOS>SUBSTRUCTURE
       1 MOL1            1 RESIDUE      1      MOL     
       2 MOL1          152 RESIDUE      1      MOL     
@<SCITEGIC>MOL_PROPERTY
feprocess Rank
SciTegic.value.IntegerValue
3

@<SCITEGIC>MOL_PROPERTY
Conf_Id
SciTegic.value.IntegerValue
904

@<SCITEGIC>MOL_PROPERTY
Probability
SciTegic.value.DoubleValue
0.63

@<SCITEGIC>MOL_PROPERTY
G
SciTegic.value.DoubleValue
575.474

@<SCITEGIC>MOL_PROPERTY
E
SciTegic.value.DoubleValue
373.117

@<SCITEGIC>MOL_PROPERTY
-TS
SciTegic.value.DoubleValue
202.358

@<SCITEGIC>MOL_PROPERTY
U+W
SciTegic.value.DoubleValue
238.980

@<SCITEGIC>MOL_PROPERTY
U
SciTegic.value.DoubleValue
335.745

@<SCITEGIC>MOL_PROPERTY
W
SciTegic.value.DoubleValue
-96.764

@<SCITEGIC>MOL_PROPERTY
W(PB)
SciTegic.value.DoubleValue
-102.917

@<SCITEGIC>MOL_PROPERTY
W(SA)
SciTegic.value.DoubleValue
6.153

@<SCITEGIC>MOL_PROPERTY
Valence
SciTegic.value.DoubleValue
146.633

@<SCITEGIC>MOL_PROPERTY
Coulomb
SciTegic.value.DoubleValue
217.428

@<SCITEGIC>MOL_PROPERTY
VdW
SciTegic.value.DoubleValue
-28.316

@<SCITEGIC>MOL_PROPERTY
VdW6
SciTegic.value.DoubleValue
-182.532

@<SCITEGIC>MOL_PROPERTY
VdW12
SciTegic.value.DoubleValue
154.217

@<SCITEGIC>MOL_PROPERTY
Bond
SciTegic.value.DoubleValue
4.613

@<SCITEGIC>MOL_PROPERTY
Angle
SciTegic.value.DoubleValue
11.710

@<SCITEGIC>MOL_PROPERTY
Pdih
SciTegic.value.DoubleValue
130.310

@<SCITEGIC>MOL_PROPERTY
Idih
SciTegic.value.DoubleValue
0.000

@<SCITEGIC>MOL_PROPERTY
Tether
SciTegic.value.DoubleValue
0.000

@<TRIPOS>MOLECULE
CD_guest-s14_fast_vm2_rndm.mol2 : feprocess host+ligand conformer 4
         152         157           2
SMALL
USER_CHARGES
 
@<TRIPOS>ATOM
       1    C1      16.434843   15.402062   21.751482 C.3        1 MOL1         0.2972
       2    H1      15.386488   15.267309   22.046852 H          1 MOL1         0.0751
       3    O1      16.639721   16.671036   21.097880 O.3        1 MOL1        -0.3740
       4    C2      17.357812   15.310913   22.995511 C.3        1 MOL1         0.1003
       5    H2      17.190147   14.325499   23.449492 H          1 MOL1         0.0783
       6    O2      17.059039   16.333892   23.960544 O.3        1 MOL1        -0.5519
       7    H3      16.133903   16.634200   23.789407 H          1 MOL1         0.3769
       8    C3      18.844722   15.409457   22.591384 C.3        1 MOL1         0.1053
       9    H4      19.014196   16.422249   22.215491 H          1 MOL1         0.0783
      10    O3      19.650577   15.183628   23.751025 O.3        1 MOL1        -0.5519
      11    H5      19.208796   15.704862   24.459012 H          1 MOL1         0.3769
      12    C4      19.210978   14.419355   21.458028 C.3        1 MOL1         0.1018
      13    H6      19.265040   13.405472   21.875945 H          1 MOL1         0.0783
      14    C5      18.174859   14.456304   20.300348 C.3        1 MOL1         0.1043
      15    H7      18.287977   15.411608   19.771500 H          1 MOL1         0.0783
      16    O4      16.827791   14.362194   20.830147 O.3        1 MOL1        -0.3740
      17    C6      18.373799   13.329141   19.258973 C.3        1 MOL1         0.0138
      18    H8      19.285824   13.543059   18.685095 H          1 MOL1         0.0794
      19    H9      17.531932   13.350871   18.554042 H          1 MOL1         0.0794
      20    O5      18.477944   12.037898   19.872138 O.3        1 MOL1        -0.5486
      21    H10     18.520351   11.369349   19.153959 H          1 MOL1         0.3769
      22    C7      14.726203   20.303123   20.602520 C.3        1 MOL1         0.2972
      23    H11     14.067598   21.146729   20.358567 H          1 MOL1         0.0751
      24    O6      16.054895   20.746940   20.948242 O.3        1 MOL1        -0.3740
      25    C8      14.149032   19.450690   21.761840 C.3        1 MOL1         0.1003
      26    H12     13.208747   19.013776   21.400674 H          1 MOL1         0.0783
      27    O7      13.868715   20.240620   22.926440 O.3        1 MOL1        -0.5519
      28    H13     14.725248   20.640035   23.222942 H          1 MOL1         0.3769
      29    C9      15.110595   18.286124   22.104394 C.3        1 MOL1         0.1053
      30    H14     16.041807   18.714270   22.501037 H          1 MOL1         0.0783
      31    O8      14.493928   17.459194   23.097799 O.3        1 MOL1        -0.5519
      32    H15     14.047404   18.088695   23.709099 H          1 MOL1         0.3769
      33    C10     15.456527   17.454532   20.836150 C.3        1 MOL1         0.1018
      34    H16     14.601549   16.812847   20.588520 H          1 MOL1         0.0783
      35    C11     15.795155   18.340441   19.603171 C.3        1 MOL1         0.1043
      36    H17     16.793402   18.769975   19.752794 H          1 MOL1         0.0783
      37    O9      14.839230   19.420934   19.466938 O.3        1 MOL1        -0.3740
      38    C12     15.836313   17.546530   18.274155 C.3        1 MOL1         0.0138
      39    H18     16.690786   16.858439   18.302993 H          1 MOL1         0.0794
      40    H19     16.013247   18.252957   17.452316 H          1 MOL1         0.0794
      41    O10     14.633650   16.805380   18.034233 O.3        1 MOL1        -0.5486
      42    H20     14.640246   16.025032   18.628494 H          1 MOL1         0.3769
      43    C13     18.444687   23.919763   21.950465 C.3        1 MOL1         0.2972
      44    H21     18.906386   24.871894   22.242417 H          1 MOL1         0.0751
      45    O11     19.422099   22.981975   21.454227 O.3        1 MOL1        -0.3740
      46    C14     17.711714   23.290559   23.159789 C.3        1 MOL1         0.1003
      47    H22     16.912648   23.984130   23.452651 H          1 MOL1         0.0783
      48    O12     18.599089   23.096428   24.273796 O.3        1 MOL1        -0.5519
      49    H23     19.465093   23.509379   24.034443 H          1 MOL1         0.3769
      50    C15     17.061140   21.948262   22.758821 C.3        1 MOL1         0.1053
      51    H24     17.863735   21.239793   22.535433 H          1 MOL1         0.0783
      52    O13     16.294880   21.457922   23.861278 O.3        1 MOL1        -0.5519
      53    H25     16.860714   21.629695   24.647671 H          1 MOL1         0.3769
      54    C16     16.185119   22.077927   21.486432 C.3        1 MOL1         0.1018
      55    H26     15.215611   22.510376   21.767282 H          1 MOL1         0.0783
      56    C17     16.854643   22.931735   20.368877 C.3        1 MOL1         0.1043
      57    H27     17.638365   22.319090   19.905062 H          1 MOL1         0.0783
      58    O14     17.463243   24.130425   20.914837 O.3        1 MOL1        -0.3740
      59    C18     15.877424   23.344029   19.242341 C.3        1 MOL1         0.0138
      60    H28     15.615643   22.447921   18.663433 H          1 MOL1         0.0794
      61    H29     16.396962   24.031941   18.561840 H          1 MOL1         0.0794
      62    O15     14.687201   23.954794   19.756036 O.3        1 MOL1        -0.5486
      63    H30     14.153236   24.258452   18.989581 H          1 MOL1         0.3769
      64    C19     23.531679   22.653185   20.899305 C.3        1 MOL1         0.2972
      65    H31     24.587751   22.813421   20.646984 H          1 MOL1         0.0751
      66    O16     23.262397   21.261439   21.176099 O.3        1 MOL1        -0.3740
      67    C20     23.106844   23.523120   22.114922 C.3        1 MOL1         0.1003
      68    H32     23.234653   24.572011   21.816962 H          1 MOL1         0.0783
      69    O17     23.917620   23.273450   23.272528 O.3        1 MOL1        -0.5519
      70    H33     23.768338   22.329706   23.533306 H          1 MOL1         0.3769
      71    C21     21.610253   23.304532   22.444644 C.3        1 MOL1         0.1053
      72    H34     21.482738   22.267164   22.780267 H          1 MOL1         0.0783
      73    O18     21.220237   24.204810   23.487168 O.3        1 MOL1        -0.5519
      74    H35     21.972951   24.201500   24.121119 H          1 MOL1         0.3769
      75    C22     20.729939   23.520366   21.186043 C.3        1 MOL1         0.1018
      76    H36     20.687724   24.594192   20.962448 H          1 MOL1         0.0783
      77    C23     21.280458   22.768470   19.942988 C.3        1 MOL1         0.1043
      78    H37     21.145240   21.693348   20.100571 H          1 MOL1         0.0783
      79    O19     22.694294   23.046569   19.788359 O.3        1 MOL1        -0.3740
      80    C24     20.546175   23.113693   18.622909 C.3        1 MOL1         0.0138
      81    H38     19.600437   22.556885   18.595660 H          1 MOL1         0.0794
      82    H39     21.154219   22.755628   17.781490 H          1 MOL1         0.0794
      83    O20     20.280726   24.514069   18.478960 O.3        1 MOL1        -0.5486
      84    H40     19.546785   24.737692   19.092157 H          1 MOL1         0.3769
      85    C25     24.984372   17.631188   22.135537 C.3        1 MOL1         0.2972
      86    H41     25.625658   16.795288   22.443542 H          1 MOL1         0.0751
      87    O21     23.779786   17.171585   21.488887 O.3        1 MOL1        -0.3740
      88    C26     24.604782   18.500857   23.361494 C.3        1 MOL1         0.1003
      89    H42     25.537207   18.910773   23.771245 H          1 MOL1         0.0783
      90    O22     23.938683   17.736373   24.379636 O.3        1 MOL1        -0.5519
      91    H43     23.918049   16.795881   24.076403 H          1 MOL1         0.3769
      92    C27     23.709201   19.681355   22.930243 C.3        1 MOL1         0.1053
      93    H44     22.757940   19.256478   22.591590 H          1 MOL1         0.0783
      94    O23     23.484720   20.529376   24.060236 O.3        1 MOL1        -0.5519
      95    H45     23.329537   19.905476   24.805276 H          1 MOL1         0.3769
      96    C28     24.330975   20.486098   21.759294 C.3        1 MOL1         0.1018
      97    H46     25.131614   21.122555   22.158657 H          1 MOL1         0.0783
      98    C29     24.896143   19.569104   20.635644 C.3        1 MOL1         0.1043
      99    H47     24.046344   19.144170   20.084901 H          1 MOL1         0.0783
     100    O24     25.679688   18.487696   21.205007 O.3        1 MOL1        -0.3740
     101    C30     25.773131   20.321048   19.606015 C.3        1 MOL1         0.0138
     102    H48     25.121575   20.959712   18.994376 H          1 MOL1         0.0794
     103    H49     26.231872   19.584345   18.932969 H          1 MOL1         0.0794
     104    O25     26.783805   21.119077   20.234929 O.3        1 MOL1        -0.5486
     105    H50     27.349815   21.496259   19.526371 H          1 MOL1         0.3769
     106    C31     21.499250   13.843049   20.749362 C.3        1 MOL1         0.2972
     107    H51     21.064547   12.873482   20.474573 H          1 MOL1         0.0751
     108    O26     20.476077   14.851365   20.910944 O.3        1 MOL1        -0.3740
     109    C32     22.354571   13.728559   22.039006 C.3        1 MOL1         0.1003
     110    H52     23.190525   13.055401   21.808031 H          1 MOL1         0.0783
     111    O27     21.616798   13.179245   23.140115 O.3        1 MOL1        -0.5519
     112    H53     20.916244   13.840072   23.370604 H          1 MOL1         0.3769
     113    C33     22.947269   15.106648   22.415274 C.3        1 MOL1         0.1053
     114    H54     22.117357   15.767162   22.702605 H          1 MOL1         0.0783
     115    O28     23.843088   14.943559   23.519478 O.3        1 MOL1        -0.5519
     116    H55     23.395505   14.304199   24.119207 H          1 MOL1         0.3769
     117    C34     23.689641   15.759219   21.217845 C.3        1 MOL1         0.1018
     118    H56     24.682472   15.302790   21.107299 H          1 MOL1         0.0783
     119    C35     22.933519   15.627652   19.866530 C.3        1 MOL1         0.1043
     120    H57     22.119174   16.358589   19.848453 H          1 MOL1         0.0783
     121    O29     22.402738   14.286281   19.715599 O.3        1 MOL1        -0.3740
     122    C36     23.865885   15.922124   18.669662 C.3        1 MOL1         0.0138
     123    H58     24.554992   15.077769   18.534566 H          1 MOL1         0.0794
     124    H59     24.469948   16.810286   18.900189 H          1 MOL1         0.0794
     125    O30     23.111690   16.154630   17.476098 O.3        1 MOL1        -0.5486
     126    H60     23.747533   16.283539   16.740459 H          1 MOL1         0.3769
     127    C1      20.318783   18.209763   16.534014 C.3        1 MOL1        -0.2400
     128    H1      19.720393   19.080264   16.236013 H          1 MOL1         0.0971
     129    H2      21.380088   18.485354   16.478375 H          1 MOL1         0.0971
     130    H3      20.142763   17.409839   15.803399 H          1 MOL1         0.0971
     131    C2      19.948314   17.737748   17.954795 C.3        1 MOL1        -0.1385
     132    H4      20.541881   16.848381   18.207721 H          1 MOL1         0.0960
     133    H5      18.896529   17.427742   17.972723 H          1 MOL1         0.0960
     134    C3      20.185234   18.845963   19.003088 C.3        1 MOL1        -0.1409
     135    H6      21.235796   19.167144   18.966381 H          1 MOL1         0.0960
     136    H7      19.572230   19.722728   18.753554 H          1 MOL1         0.0960
     137    C4      19.845467   18.364492   20.429136 C.3        1 MOL1        -0.1409
     138    H8      20.490166   17.518638   20.694089 H          1 MOL1         0.0960
     139    H9      18.813372   17.997538   20.460535 H          1 MOL1         0.0960
     140    C5      20.025580   19.482704   21.472554 C.3        1 MOL1        -0.1409
     141    H10     21.046469   19.872691   21.408195 H          1 MOL1         0.0960
     142    H11     19.353480   20.314630   21.230622 H          1 MOL1         0.0960
     143    C6      19.756397   18.984361   22.908171 C.3        1 MOL1        -0.1450
     144    H12     20.390449   18.113357   23.123215 H          1 MOL1         0.0960
     145    H13     18.710912   18.657451   22.994722 H          1 MOL1         0.0960
     146    C7      20.042138   20.077329   23.949191 C.3        1 MOL1         0.0172
     147    H14     21.095322   20.364345   23.906284 H          1 MOL1         0.0934
     148    H15     19.440524   20.961415   23.731674 H          1 MOL1         0.0934
     149    N1      19.730818   19.639455   25.363456 N.4        1 MOL1        -0.5956
     150    H16     19.890646   20.398972   26.033910 H          1 MOL1         0.3624
     151    H17     18.752253   19.349472   25.461230 H          1 MOL1         0.3624
     152    H18     20.314783   18.848113   25.652372 H          1 MOL1         0.3624
@<TRIPOS>BOND
    1     1     2    1
    2     1     3    1
    3     1     4    1
    4     4     5    1
    5     4     6    1
    6     6     7    1
    7     4     8    1
    8     8     9    1
    9     8    10    1
   10    10    11    1
   11     8    12    1
   12    12    13    1
   13    12    14    1
   14    14    15    1
   15     1    16    1
   16    14    16    1
   17    14    17    1
   18    17    18    1
   19    17    19    1
   20    17    20    1
   21    20    21    1
   22    22    23    1
   23    22    24    1
   24    22    25    1
   25    25    26    1
   26    25    27    1
   27    27    28    1
   28    25    29    1
   29    29    30    1
   30    29    31    1
   31    31    32    1
   32     3    33    1
   33    29    33    1
   34    33    34    1
   35    33    35    1
   36    35    36    1
   37    22    37    1
   38    35    37    1
   39    35    38    1
   40    38    39    1
   41    38    40    1
   42    38    41    1
   43    41    42    1
   44    43    44    1
   45    43    45    1
   46    43    46    1
   47    46    47    1
   48    46    48    1
   49    48    49    1
   50    46    50    1
   51    50    51    1
   52    50    52    1
   53    52    53    1
   54    24    54    1
   55    50    54    1
   56    54    55    1
   57    54    56    1
   58    56    57    1
   59    43    58    1
   60    56    58    1
   61    56    59    1
   62    59    60    1
   63    59    61    1
   64    59    62    1
   65    62    63    1
   66    64    65    1
   67    64    66    1
   68    64    67    1
   69    67    68    1
   70    67    69    1
   71    69    70    1
   72    67    71    1
   73    71    72    1
   74    71    73    1
   75    73    74    1
   76    45    75    1
   77    71    75    1
   78    75    76    1
   79    75    77    1
   80    77    78    1
   81    64    79    1
   82    77    79    1
   83    77    80    1
   84    80    81    1
   85    80    82    1
   86    80    83    1
   87    83    84    1
   88    85    86    1
   89    85    87    1
   90    85    88    1
   91    88    89    1
   92    88    90    1
   93    90    91    1
   94    88    92    1
   95    92    93    1
   96    92    94    1
   97    94    95    1
   98    66    96    1
   99    92    96    1
  100    96    97    1
  101    96    98    1
  102    98    99    1
  103    85   100    1
  104    98   100    1
  105    98   101    1
  106   101   102    1
  107   101   103    1
  108   101   104    1
  109   104   105    1
  110   106   107    1
  111    12   108    1
  112   106   108    1
  113   106   109    1
  114   109   110    1
  115   109   111    1
  116   111   112    1
  117   109   113    1
  118   113   114    1
  119   113   115    1
  120   115   116    1
  121    87   117    1
  122   113   117    1
  123   117   118    1
  124   117   119    1
  125   119   120    1
  126   106   121    1
  127   119   121    1
  128   119   122    1
  129   122   123    1
  130   122   124    1
  131   122   125    1
  132   125   126    1
  133   127   128    1
  134   127   129    1
  135   127   130    1
  136   127   131    1
  137   131   132    1
  138   131   133    1
  139   131   134    1
  140   134   135    1
  141   134   136    1
  142   134   137    1
  143   137   138    1
  144   137   139    1
  145   137   140    1
  146   140   141    1
  147   140   142    1
  148   140   143    1
  149   143   144    1
  150   143   145    1
  151   143   146    1
  152   146   147    1
  153   146   148    1
  154   146   149    1
  155   149   150    1
  156   149   151    1
  157   149   152    1
@<TRIPOS>SUBSTRUCTURE
       1 MOL1            1 RESIDUE      1      MOL     
       2 MOL1          152 RESIDUE      1      MOL     
@<SCITEGIC>MOL_PROPERTY
feprocess Rank
SciTegic.value.IntegerValue
4

@<SCITEGIC>MOL_PROPERTY
Conf_Id
SciTegic.value.IntegerValue
501

@<SCITEGIC>MOL_PROPERTY
Probability
SciTegic.value.DoubleValue
0.33

@<SCITEGIC>MOL_PROPERTY
G
SciTegic.value.DoubleValue
575.865

@<SCITEGIC>MOL_PROPERTY
E
SciTegic.value.DoubleValue
373.357

@<SCITEGIC>MOL_PROPERTY
-TS
SciTegic.value.DoubleValue
202.508

@<SCITEGIC>MOL_PROPERTY
U+W
SciTegic.value.DoubleValue
239.220

@<SCITEGIC>MOL_PROPERTY
U
SciTegic.value.DoubleValue
323.445

@<SCITEGIC>MOL_PROPERTY
W
SciTegic.value.DoubleValue
-84.225

@<SCITEGIC>MOL_PROPERTY
W(PB)
SciTegic.value.DoubleValue
-90.358

@<SCITEGIC>MOL_PROPERTY
W(SA)
SciTegic.value.DoubleValue
6.132

@<SCITEGIC>MOL_PROPERTY
Valence
SciTegic.value.DoubleValue
145.889

@<SCITEGIC>MOL_PROPERTY
Coulomb
SciTegic.value.DoubleValue
203.510

@<SCITEGIC>MOL_PROPERTY
VdW
SciTegic.value.DoubleValue
-25.954

@<SCITEGIC>MOL_PROPERTY
VdW6
SciTegic.value.DoubleValue
-181.180

@<SCITEGIC>MOL_PROPERTY
VdW12
SciTegic.value.DoubleValue
155.226

@<SCITEGIC>MOL_PROPERTY
Bond
SciTegic.value.DoubleValue
4.716

@<SCITEGIC>MOL_PROPERTY
Angle
SciTegic.value.DoubleValue
11.712

@<SCITEGIC>MOL_PROPERTY
Pdih
SciTegic.value.DoubleValue
129.461

@<SCITEGIC>MOL_PROPERTY
Idih
SciTegic.value.DoubleValue
0.000

@<SCITEGIC>MOL_PROPERTY
Tether
SciTegic.value.DoubleValue
0.000

@<TRIPOS>MOLECULE
CD_guest-s14_fast_vm2_rndm.mol2 : feprocess host+ligand conformer 5
         152         157           2
SMALL
USER_CHARGES
 
@<TRIPOS>ATOM
       1    C1      16.434996   15.428620   21.984582 C.3        1 MOL1         0.2972
       2    H1      15.408684   15.311852   22.355173 H          1 MOL1         0.0751
       3    O1      16.604117   16.682231   21.289977 O.3        1 MOL1        -0.3740
       4    C2      17.445154   15.341031   23.160170 C.3        1 MOL1         0.1003
       5    H2      17.301358   14.359859   23.631303 H          1 MOL1         0.0783
       6    O2      17.231726   16.366876   24.142620 O.3        1 MOL1        -0.5519
       7    H3      16.287034   16.643317   24.071175 H          1 MOL1         0.3769
       8    C3      18.899846   15.418446   22.651059 C.3        1 MOL1         0.1053
       9    H4      19.059002   16.416838   22.231792 H          1 MOL1         0.0783
      10    O3      19.773541   15.216144   23.764468 O.3        1 MOL1        -0.5519
      11    H5      19.368465   15.750267   24.485388 H          1 MOL1         0.3769
      12    C4      19.172245   14.391022   21.525688 C.3        1 MOL1         0.1018
      13    H6      19.236589   13.387529   21.966529 H          1 MOL1         0.0783
      14    C5      18.058734   14.418396   20.441054 C.3        1 MOL1         0.1043
      15    H7      18.150998   15.357633   19.880450 H          1 MOL1         0.0783
      16    O4      16.747962   14.363780   21.060748 O.3        1 MOL1        -0.3740
      17    C6      18.167794   13.260117   19.420619 C.3        1 MOL1         0.0138
      18    H8      19.042816   13.441071   18.781703 H          1 MOL1         0.0794
      19    H9      17.281018   13.278942   18.772986 H          1 MOL1         0.0794
      20    O5      18.290984   11.983854   20.061152 O.3        1 MOL1        -0.5486
      21    H10     18.275163   11.295953   19.360306 H          1 MOL1         0.3769
      22    C7      14.687958   20.365174   21.038239 C.3        1 MOL1         0.2972
      23    H11     13.974575   21.185977   20.890923 H          1 MOL1         0.0751
      24    O6      16.019653   20.852550   21.291723 O.3        1 MOL1        -0.3740
      25    C8      14.262036   19.519766   22.259292 C.3        1 MOL1         0.1003
      26    H12     13.259680   19.122967   22.051369 H          1 MOL1         0.0783
      27    O7      14.214161   20.337152   23.440077 O.3        1 MOL1        -0.5519
      28    H13     14.901217   21.040342   23.331899 H          1 MOL1         0.3769
      29    C9      15.216381   18.320954   22.473707 C.3        1 MOL1         0.1053
      30    H14     16.189411   18.714950   22.796678 H          1 MOL1         0.0783
      31    O8      14.658898   17.493113   23.500285 O.3        1 MOL1        -0.5519
      32    H15     14.312954   18.125726   24.171001 H          1 MOL1         0.3769
      33    C10     15.428362   17.512928   21.160892 C.3        1 MOL1         0.1018
      34    H16     14.533914   16.908165   20.964456 H          1 MOL1         0.0783
      35    C11     15.695804   18.433766   19.938071 C.3        1 MOL1         0.1043
      36    H17     16.693400   18.870007   20.061035 H          1 MOL1         0.0783
      37    O9      14.722726   19.505483   19.881324 O.3        1 MOL1        -0.3740
      38    C12     15.690508   17.684088   18.582526 C.3        1 MOL1         0.0138
      39    H18     16.592404   17.060549   18.521831 H          1 MOL1         0.0794
      40    H19     15.752916   18.423901   17.773652 H          1 MOL1         0.0794
      41    O10     14.527765   16.866107   18.408434 O.3        1 MOL1        -0.5486
      42    H20     14.628920   16.080402   18.987360 H          1 MOL1         0.3769
      43    C13     18.494872   24.125405   20.672911 C.3        1 MOL1         0.2972
      44    H21     18.947870   25.087829   20.402112 H          1 MOL1         0.0751
      45    O11     19.496424   23.158250   21.054270 O.3        1 MOL1        -0.3740
      46    C14     17.451647   24.289285   21.813224 C.3        1 MOL1         0.1003
      47    H22     16.645960   24.923830   21.421448 H          1 MOL1         0.0783
      48    O12     18.007778   24.922315   22.974294 O.3        1 MOL1        -0.5519
      49    H23     18.695690   24.308583   23.335298 H          1 MOL1         0.3769
      50    C15     16.837718   22.915163   22.176149 C.3        1 MOL1         0.1053
      51    H24     17.631843   22.281375   22.593441 H          1 MOL1         0.0783
      52    O13     15.796737   23.084728   23.144339 O.3        1 MOL1        -0.5519
      53    H25     16.158615   23.715686   23.805416 H          1 MOL1         0.3769
      54    C16     16.268564   22.219180   20.915672 C.3        1 MOL1         0.1018
      55    H26     15.349375   22.744789   20.625722 H          1 MOL1         0.0783
      56    C17     17.268738   22.230033   19.724526 C.3        1 MOL1         0.1043
      57    H27     18.099696   21.560237   19.973021 H          1 MOL1         0.0783
      58    O14     17.785197   23.573106   19.541077 O.3        1 MOL1        -0.3740
      59    C18     16.686392   21.733642   18.376104 C.3        1 MOL1         0.0138
      60    H28     16.776485   20.641142   18.337391 H          1 MOL1         0.0794
      61    H29     17.305307   22.132749   17.561425 H          1 MOL1         0.0794
      62    O15     15.317487   22.103479   18.179663 O.3        1 MOL1        -0.5486
      63    H30     14.771276   21.392384   18.584200 H          1 MOL1         0.3769
      64    C19     23.320606   22.504866   22.404681 C.3        1 MOL1         0.2972
      65    H31     24.338015   22.560553   22.813183 H          1 MOL1         0.0751
      66    O16     23.056281   21.217279   21.813189 O.3        1 MOL1        -0.3740
      67    C20     22.289686   22.757256   23.529648 C.3        1 MOL1         0.1003
      68    H32     22.481809   23.761565   23.929229 H          1 MOL1         0.0783
      69    O17     22.421884   21.790707   24.586230 O.3        1 MOL1        -0.5519
      70    H33     23.240677   21.268478   24.401333 H          1 MOL1         0.3769
      71    C21     20.852174   22.725403   22.969865 C.3        1 MOL1         0.1053
      72    H34     20.643062   21.701370   22.647134 H          1 MOL1         0.0783
      73    O18     19.948877   23.092772   24.015461 O.3        1 MOL1        -0.5519
      74    H35     20.299310   22.627604   24.807990 H          1 MOL1         0.3769
      75    C22     20.676756   23.636226   21.729281 C.3        1 MOL1         0.1018
      76    H36     20.579647   24.679709   22.056784 H          1 MOL1         0.0783
      77    C23     21.846673   23.492766   20.712609 C.3        1 MOL1         0.1043
      78    H37     21.729203   22.528070   20.202556 H          1 MOL1         0.0783
      79    O19     23.130576   23.510438   21.387693 O.3        1 MOL1        -0.3740
      80    C24     21.849370   24.587128   19.618934 C.3        1 MOL1         0.0138
      81    H38     20.998214   24.410158   18.947559 H          1 MOL1         0.0794
      82    H39     22.764273   24.482817   19.020277 H          1 MOL1         0.0794
      83    O20     21.763731   25.905478   20.173772 O.3        1 MOL1        -0.5486
      84    H40     21.849748   26.546423   19.434523 H          1 MOL1         0.3769
      85    C25     25.094321   17.644181   21.116067 C.3        1 MOL1         0.2972
      86    H41     25.845550   16.885187   20.862980 H          1 MOL1         0.0751
      87    O21     23.784330   17.070241   21.298273 O.3        1 MOL1        -0.3740
      88    C26     25.462501   18.359666   22.441728 C.3        1 MOL1         0.1003
      89    H42     26.432937   18.850749   22.292532 H          1 MOL1         0.0783
      90    O22     25.572459   17.419587   23.522553 O.3        1 MOL1        -0.5519
      91    H43     24.853535   16.747837   23.406964 H          1 MOL1         0.3769
      92    C27     24.419585   19.455049   22.780099 C.3        1 MOL1         0.1053
      93    H44     23.459881   18.965166   22.994496 H          1 MOL1         0.0783
      94    O23     24.857158   20.185622   23.930947 O.3        1 MOL1        -0.5519
      95    H45     25.196403   19.499956   24.550032 H          1 MOL1         0.3769
      96    C28     24.221389   20.407828   21.572888 C.3        1 MOL1         0.1018
      97    H46     25.123965   21.022218   21.456651 H          1 MOL1         0.0783
      98    C29     23.973887   19.633872   20.251292 C.3        1 MOL1         0.1043
      99    H47     23.012058   19.116990   20.325114 H          1 MOL1         0.0783
     100    O24     25.016399   18.646220   20.076018 O.3        1 MOL1        -0.3740
     101    C30     23.901414   20.538966   18.994555 C.3        1 MOL1         0.0138
     102    H48     22.878012   20.926117   18.907329 H          1 MOL1         0.0794
     103    H49     24.088315   19.922058   18.105537 H          1 MOL1         0.0794
     104    O25     24.820600   21.637332   19.037660 O.3        1 MOL1        -0.5486
     105    H50     24.498404   22.261171   19.726311 H          1 MOL1         0.3769
     106    C31     21.415755   13.762950   20.718547 C.3        1 MOL1         0.2972
     107    H51     20.964845   12.787650   20.494603 H          1 MOL1         0.0751
     108    O26     20.403716   14.783753   20.881114 O.3        1 MOL1        -0.3740
     109    C32     22.325229   13.685500   21.975822 C.3        1 MOL1         0.1003
     110    H52     23.156784   13.012946   21.727634 H          1 MOL1         0.0783
     111    O27     21.638588   13.157088   23.119177 O.3        1 MOL1        -0.5519
     112    H53     20.957510   13.828503   23.374385 H          1 MOL1         0.3769
     113    C33     22.921418   15.078832   22.285276 C.3        1 MOL1         0.1053
     114    H54     22.097748   15.756508   22.547660 H          1 MOL1         0.0783
     115    O28     23.834867   14.982922   23.382983 O.3        1 MOL1        -0.5519
     116    H55     23.381272   14.417257   24.046921 H          1 MOL1         0.3769
     117    C34     23.649945   15.659435   21.048675 C.3        1 MOL1         0.1018
     118    H56     24.622232   15.158624   20.952736 H          1 MOL1         0.0783
     119    C35     22.837509   15.500790   19.732081 C.3        1 MOL1         0.1043
     120    H57     22.019520   16.229774   19.754674 H          1 MOL1         0.0783
     121    O29     22.271421   14.169107   19.629636 O.3        1 MOL1        -0.3740
     122    C36     23.671187   15.780453   18.458891 C.3        1 MOL1         0.0138
     123    H58     23.896010   16.854497   18.417724 H          1 MOL1         0.0794
     124    H59     23.058776   15.541339   17.579219 H          1 MOL1         0.0794
     125    O30     24.890803   15.028101   18.436417 O.3        1 MOL1        -0.5486
     126    H60     25.345395   15.222743   17.587967 H          1 MOL1         0.3769
     127    C1      20.388451   18.493049   18.175116 C.3        1 MOL1        -0.2400
     128    H1      19.810715   18.380344   17.248598 H          1 MOL1         0.0971
     129    H2      21.011749   17.599076   18.289213 H          1 MOL1         0.0971
     130    H3      21.049229   19.360661   18.054481 H          1 MOL1         0.0971
     131    C2      19.445849   18.675931   19.382258 C.3        1 MOL1        -0.1385
     132    H4      18.786709   17.801239   19.466561 H          1 MOL1         0.0960
     133    H5      18.805218   19.547147   19.202988 H          1 MOL1         0.0960
     134    C3      20.219035   18.862089   20.704421 C.3        1 MOL1        -0.1409
     135    H6      20.796040   17.951818   20.919957 H          1 MOL1         0.0960
     136    H7      20.935025   19.686672   20.599106 H          1 MOL1         0.0960
     137    C4      19.285114   19.184042   21.889737 C.3        1 MOL1        -0.1409
     138    H8      18.422431   18.507786   21.890395 H          1 MOL1         0.0960
     139    H9      18.883531   20.198894   21.768275 H          1 MOL1         0.0960
     140    C5      20.023004   19.068657   23.242075 C.3        1 MOL1        -0.1409
     141    H10     20.324974   18.027000   23.414856 H          1 MOL1         0.0960
     142    H11     20.952351   19.652108   23.215546 H          1 MOL1         0.0960
     143    C6      19.137309   19.550053   24.409623 C.3        1 MOL1        -0.1450
     144    H12     18.254820   18.902410   24.495047 H          1 MOL1         0.0960
     145    H13     18.771208   20.564453   24.204847 H          1 MOL1         0.0960
     146    C7      19.913523   19.546907   25.736256 C.3        1 MOL1         0.0172
     147    H14     20.261816   18.534382   25.957057 H          1 MOL1         0.0934
     148    H15     20.785933   20.201560   25.653147 H          1 MOL1         0.0934
     149    N1      19.078846   20.022883   26.906792 N.4        1 MOL1        -0.5956
     150    H16     19.615449   20.021811   27.780571 H          1 MOL1         0.3624
     151    H17     18.259906   19.424242   27.054603 H          1 MOL1         0.3624
     152    H18     18.735359   20.978024   26.764764 H          1 MOL1         0.3624
@<TRIPOS>BOND
    1     1     2    1
    2     1     3    1
    3     1     4    1
    4     4     5    1
    5     4     6    1
    6     6     7    1
    7     4     8    1
    8     8     9    1
    9     8    10    1
   10    10    11    1
   11     8    12    1
   12    12    13    1
   13    12    14    1
   14    14    15    1
   15     1    16    1
   16    14    16    1
   17    14    17    1
   18    17    18    1
   19    17    19    1
   20    17    20    1
   21    20    21    1
   22    22    23    1
   23    22    24    1
   24    22    25    1
   25    25    26    1
   26    25    27    1
   27    27    28    1
   28    25    29    1
   29    29    30    1
   30    29    31    1
   31    31    32    1
   32     3    33    1
   33    29    33    1
   34    33    34    1
   35    33    35    1
   36    35    36    1
   37    22    37    1
   38    35    37    1
   39    35    38    1
   40    38    39    1
   41    38    40    1
   42    38    41    1
   43    41    42    1
   44    43    44    1
   45    43    45    1
   46    43    46    1
   47    46    47    1
   48    46    48    1
   49    48    49    1
   50    46    50    1
   51    50    51    1
   52    50    52    1
   53    52    53    1
   54    24    54    1
   55    50    54    1
   56    54    55    1
   57    54    56    1
   58    56    57    1
   59    43    58    1
   60    56    58    1
   61    56    59    1
   62    59    60    1
   63    59    61    1
   64    59    62    1
   65    62    63    1
   66    64    65    1
   67    64    66    1
   68    64    67    1
   69    67    68    1
   70    67    69    1
   71    69    70    1
   72    67    71    1
   73    71    72    1
   74    71    73    1
   75    73    74    1
   76    45    75    1
   77    71    75    1
   78    75    76    1
   79    75    77    1
   80    77    78    1
   81    64    79    1
   82    77    79    1
   83    77    80    1
   84    80    81    1
   85    80    82    1
   86    80    83    1
   87    83    84    1
   88    85    86    1
   89    85    87    1
   90    85    88    1
   91    88    89    1
   92    88    90    1
   93    90    91    1
   94    88    92    1
   95    92    93    1
   96    92    94    1
   97    94    95    1
   98    66    96    1
   99    92    96    1
  100    96    97    1
  101    96    98    1
  102    98    99    1
  103    85   100    1
  104    98   100    1
  105    98   101    1
  106   101   102    1
  107   101   103    1
  108   101   104    1
  109   104   105    1
  110   106   107    1
  111    12   108    1
  112   106   108    1
  113   106   109    1
  114   109   110    1
  115   109   111    1
  116   111   112    1
  117   109   113    1
  118   113   114    1
  119   113   115    1
  120   115   116    1
  121    87   117    1
  122   113   117    1
  123   117   118    1
  124   117   119    1
  125   119   120    1
  126   106   121    1
  127   119   121    1
  128   119   122    1
  129   122   123    1
  130   122   124    1
  131   122   125    1
  132   125   126    1
  133   127   128    1
  134   127   129    1
  135   127   130    1
  136   127   131    1
  137   131   132    1
  138   131   133    1
  139   131   134    1
  140   134   135    1
  141   134   136    1
  142   134   137    1
  143   137   138    1
  144   137   139    1
  145   137   140    1
  146   140   141    1
  147   140   142    1
  148   140   143    1
  149   143   144    1
  150   143   145    1
  151   143   146    1
  152   146   147    1
  153   146   148    1
  154   146   149    1
  155   149   150    1
  156   149   151    1
  157   149   152    1
@<TRIPOS>SUBSTRUCTURE
       1 MOL1            1 RESIDUE      1      MOL     
       2 MOL1          152 RESIDUE      1      MOL     
@<SCITEGIC>MOL_PROPERTY
feprocess Rank
SciTegic.value.IntegerValue
5

@<SCITEGIC>MOL_PROPERTY
Conf_Id
SciTegic.value.IntegerValue
361

@<SCITEGIC>MOL_PROPERTY
Probability
SciTegic.value.DoubleValue
0.24

@<SCITEGIC>MOL_PROPERTY
G
SciTegic.value.DoubleValue
576.050

@<SCITEGIC>MOL_PROPERTY
E
SciTegic.value.DoubleValue
374.174

@<SCITEGIC>MOL_PROPERTY
-TS
SciTegic.value.DoubleValue
201.876

@<SCITEGIC>MOL_PROPERTY
U+W
SciTegic.value.DoubleValue
240.037

@<SCITEGIC>MOL_PROPERTY
U
SciTegic.value.DoubleValue
330.721

@<SCITEGIC>MOL_PROPERTY
W
SciTegic.value.DoubleValue
-90.683

@<SCITEGIC>MOL_PROPERTY
W(PB)
SciTegic.value.DoubleValue
-96.869

@<SCITEGIC>MOL_PROPERTY
W(SA)
SciTegic.value.DoubleValue
6.185

@<SCITEGIC>MOL_PROPERTY
Valence
SciTegic.value.DoubleValue
148.028

@<SCITEGIC>MOL_PROPERTY
Coulomb
SciTegic.value.DoubleValue
209.238

@<SCITEGIC>MOL_PROPERTY
VdW
SciTegic.value.DoubleValue
-26.545

@<SCITEGIC>MOL_PROPERTY
VdW6
SciTegic.value.DoubleValue
-181.150

@<SCITEGIC>MOL_PROPERTY
VdW12
SciTegic.value.DoubleValue
154.604

@<SCITEGIC>MOL_PROPERTY
Bond
SciTegic.value.DoubleValue
4.629

@<SCITEGIC>MOL_PROPERTY
Angle
SciTegic.value.DoubleValue
12.148

@<SCITEGIC>MOL_PROPERTY
Pdih
SciTegic.value.DoubleValue
131.251

@<SCITEGIC>MOL_PROPERTY
Idih
SciTegic.value.DoubleValue
0.000

@<SCITEGIC>MOL_PROPERTY
Tether
SciTegic.value.DoubleValue
0.000

@<TRIPOS>MOLECULE
CD_guest-s14_fast_vm2_rndm.mol2 : feprocess host+ligand conformer 6
         152         157           2
SMALL
USER_CHARGES
 
@<TRIPOS>ATOM
       1    C1      16.199260   15.209352   21.743202 C.3        1 MOL1         0.2972
       2    H1      15.139539   15.066163   21.990899 H          1 MOL1         0.0751
       3    O1      16.445287   16.512381   21.175439 O.3        1 MOL1        -0.3740
       4    C2      17.079048   15.027186   23.006651 C.3        1 MOL1         0.1003
       5    H2      16.945256   13.993209   23.350674 H          1 MOL1         0.0783
       6    O2      16.701393   15.926791   24.061211 O.3        1 MOL1        -0.5519
       7    H3      15.920288   16.442667   23.743851 H          1 MOL1         0.3769
       8    C3      18.569166   15.229448   22.660163 C.3        1 MOL1         0.1053
       9    H4      18.695667   16.282560   22.386335 H          1 MOL1         0.0783
      10    O3      19.359712   14.934289   23.815282 O.3        1 MOL1        -0.5519
      11    H5      18.863632   15.342837   24.560698 H          1 MOL1         0.3769
      12    C4      19.010956   14.353043   21.459217 C.3        1 MOL1         0.1018
      13    H6      19.147976   13.321884   21.810717 H          1 MOL1         0.0783
      14    C5      17.988609   14.380570   20.285217 C.3        1 MOL1         0.1043
      15    H7      18.077273   15.353129   19.783794 H          1 MOL1         0.0783
      16    O4      16.632012   14.226482   20.779321 O.3        1 MOL1        -0.3740
      17    C6      18.246901   13.293772   19.214332 C.3        1 MOL1         0.0138
      18    H8      19.155590   13.561537   18.658384 H          1 MOL1         0.0794
      19    H9      17.413243   13.301817   18.499373 H          1 MOL1         0.0794
      20    O5      18.396644   11.990277   19.790554 O.3        1 MOL1        -0.5486
      21    H10     18.471496   11.345175   19.053703 H          1 MOL1         0.3769
      22    C7      14.737363   20.208473   20.555818 C.3        1 MOL1         0.2972
      23    H11     14.118800   21.077231   20.296504 H          1 MOL1         0.0751
      24    O6      16.105398   20.596921   20.814492 O.3        1 MOL1        -0.3740
      25    C8      14.150590   19.445689   21.774610 C.3        1 MOL1         0.1003
      26    H12     13.166392   19.067398   21.468575 H          1 MOL1         0.0783
      27    O7      13.978485   20.293771   22.919138 O.3        1 MOL1        -0.5519
      28    H13     14.885061   20.563292   23.212623 H          1 MOL1         0.3769
      29    C9      15.034537   18.226624   22.131699 C.3        1 MOL1         0.1053
      30    H14     16.004482   18.600598   22.488017 H          1 MOL1         0.0783
      31    O8      14.393328   17.473643   23.166130 O.3        1 MOL1        -0.5519
      32    H15     14.027123   18.147709   23.782887 H          1 MOL1         0.3769
      33    C10     15.289068   17.324726   20.894450 C.3        1 MOL1         0.1018
      34    H16     14.397597   16.713986   20.703407 H          1 MOL1         0.0783
      35    C11     15.637282   18.133191   19.614092 C.3        1 MOL1         0.1043
      36    H17     16.661502   18.498407   19.723472 H          1 MOL1         0.0783
      37    O9      14.749856   19.268812   19.459568 O.3        1 MOL1        -0.3740
      38    C12     15.610134   17.291208   18.314860 C.3        1 MOL1         0.0138
      39    H18     16.473701   16.612761   18.319195 H          1 MOL1         0.0794
      40    H19     15.735862   17.968931   17.460025 H          1 MOL1         0.0794
      41    O10     14.402009   16.535554   18.167722 O.3        1 MOL1        -0.5486
      42    H20     14.460254   15.761964   18.768406 H          1 MOL1         0.3769
      43    C13     18.546037   23.762389   21.959639 C.3        1 MOL1         0.2972
      44    H21     18.943988   24.716278   22.328695 H          1 MOL1         0.0751
      45    O11     19.567035   22.982772   21.303489 O.3        1 MOL1        -0.3740
      46    C14     17.948472   22.941652   23.132852 C.3        1 MOL1         0.1003
      47    H22     17.159000   23.554792   23.586769 H          1 MOL1         0.0783
      48    O12     18.939165   22.631549   24.127473 O.3        1 MOL1        -0.5519
      49    H23     19.674034   23.282504   24.019590 H          1 MOL1         0.3769
      50    C15     17.310162   21.631736   22.622621 C.3        1 MOL1         0.1053
      51    H24     18.122334   21.000347   22.251162 H          1 MOL1         0.0783
      52    O13     16.656047   20.981979   23.715783 O.3        1 MOL1        -0.5519
      53    H25     17.294243   21.057443   24.460895 H          1 MOL1         0.3769
      54    C16     16.323896   21.874367   21.452252 C.3        1 MOL1         0.1018
      55    H26     15.395172   22.301807   21.852558 H          1 MOL1         0.0783
      56    C17     16.921208   22.824556   20.376772 C.3        1 MOL1         0.1043
      57    H27     17.714434   22.282473   19.845839 H          1 MOL1         0.0783
      58    O14     17.489995   24.001735   21.004816 O.3        1 MOL1        -0.3740
      59    C18     15.890522   23.281825   19.317003 C.3        1 MOL1         0.0138
      60    H28     15.648489   22.424367   18.674524 H          1 MOL1         0.0794
      61    H29     16.357746   24.045115   18.680396 H          1 MOL1         0.0794
      62    O15     14.692328   23.794564   19.912977 O.3        1 MOL1        -0.5486
      63    H30     14.123420   24.138967   19.190275 H          1 MOL1         0.3769
      64    C19     23.686812   22.839537   20.959293 C.3        1 MOL1         0.2972
      65    H31     24.755563   22.999376   20.766514 H          1 MOL1         0.0751
      66    O16     23.392435   21.448739   21.208356 O.3        1 MOL1        -0.3740
      67    C20     23.192285   23.694847   22.154431 C.3        1 MOL1         0.1003
      68    H32     23.298956   24.747332   21.860550 H          1 MOL1         0.0783
      69    O17     23.969869   23.469975   23.339085 O.3        1 MOL1        -0.5519
      70    H33     23.870108   22.513783   23.577373 H          1 MOL1         0.3769
      71    C21     21.690281   23.428860   22.422444 C.3        1 MOL1         0.1053
      72    H34     21.579291   22.386575   22.752505 H          1 MOL1         0.0783
      73    O18     21.243747   24.315574   23.454527 O.3        1 MOL1        -0.5519
      74    H35     21.986830   24.347429   24.099603 H          1 MOL1         0.3769
      75    C22     20.848039   23.624114   21.129379 C.3        1 MOL1         0.1018
      76    H36     20.732327   24.698836   20.940454 H          1 MOL1         0.0783
      77    C23     21.493999   22.959945   19.879749 C.3        1 MOL1         0.1043
      78    H37     21.365128   21.874156   19.962573 H          1 MOL1         0.0783
      79    O19     22.911282   23.254574   19.815705 O.3        1 MOL1        -0.3740
      80    C24     20.835762   23.393052   18.546603 C.3        1 MOL1         0.0138
      81    H38     19.819852   22.979542   18.507082 H          1 MOL1         0.0794
      82    H39     21.401984   22.947122   17.718170 H          1 MOL1         0.0794
      83    O20     20.779631   24.816509   18.392819 O.3        1 MOL1        -0.5486
      84    H40     20.069467   25.152117   18.980463 H          1 MOL1         0.3769
      85    C25     24.904642   17.735286   22.074830 C.3        1 MOL1         0.2972
      86    H41     25.489902   16.846645   22.344537 H          1 MOL1         0.0751
      87    O21     23.625292   17.381251   21.509835 O.3        1 MOL1        -0.3740
      88    C26     24.676012   18.621327   23.322984 C.3        1 MOL1         0.1003
      89    H42     25.662767   18.955863   23.669047 H          1 MOL1         0.0783
      90    O22     24.028749   17.893617   24.380494 O.3        1 MOL1        -0.5519
      91    H43     23.969909   16.949287   24.093117 H          1 MOL1         0.3769
      92    C27     23.847488   19.870799   22.951399 C.3        1 MOL1         0.1053
      93    H44     22.847769   19.538337   22.657207 H          1 MOL1         0.0783
      94    O23     23.746094   20.713479   24.101332 O.3        1 MOL1        -0.5519
      95    H45     23.630896   20.086352   24.850637 H          1 MOL1         0.3769
      96    C28     24.453741   20.635494   21.747398 C.3        1 MOL1         0.1018
      97    H46     25.302017   21.237188   22.099851 H          1 MOL1         0.0783
      98    C29     24.902358   19.689677   20.593773 C.3        1 MOL1         0.1043
      99    H47     23.998906   19.344008   20.075109 H          1 MOL1         0.0783
     100    O24     25.615084   18.533836   21.106026 O.3        1 MOL1        -0.3740
     101    C30     25.791148   20.388761   19.537712 C.3        1 MOL1         0.0138
     102    H48     25.168816   21.095149   18.971673 H          1 MOL1         0.0794
     103    H49     26.153975   19.632576   18.828655 H          1 MOL1         0.0794
     104    O25     26.893752   21.083279   20.133940 O.3        1 MOL1        -0.5486
     105    H50     27.453074   21.434578   19.406937 H          1 MOL1         0.3769
     106    C31     21.325661   14.013680   20.682664 C.3        1 MOL1         0.2972
     107    H51     20.952174   13.032400   20.362889 H          1 MOL1         0.0751
     108    O26     20.239811   14.924274   20.962373 O.3        1 MOL1        -0.3740
     109    C32     22.240057   13.886079   21.932795 C.3        1 MOL1         0.1003
     110    H52     23.099099   13.268934   21.638759 H          1 MOL1         0.0783
     111    O27     21.572119   13.248953   23.031784 O.3        1 MOL1        -0.5519
     112    H53     20.814160   13.832315   23.288995 H          1 MOL1         0.3769
     113    C33     22.778181   15.273991   22.357533 C.3        1 MOL1         0.1053
     114    H54     21.926249   15.881322   22.688653 H          1 MOL1         0.0783
     115    O28     23.708114   15.112265   23.433905 O.3        1 MOL1        -0.5519
     116    H55     23.305555   14.429954   24.017708 H          1 MOL1         0.3769
     117    C34     23.454153   15.994683   21.162007 C.3        1 MOL1         0.1018
     118    H56     24.415506   15.508226   20.952121 H          1 MOL1         0.0783
     119    C35     22.579852   15.956686   19.878474 C.3        1 MOL1         0.1043
     120    H57     21.706847   16.598974   20.034985 H          1 MOL1         0.0783
     121    O29     22.127882   14.601737   19.633436 O.3        1 MOL1        -0.3740
     122    C36     23.296992   16.491444   18.613256 C.3        1 MOL1         0.0138
     123    H58     23.280767   17.588778   18.642645 H          1 MOL1         0.0794
     124    H59     22.721126   16.185005   17.729874 H          1 MOL1         0.0794
     125    O30     24.650770   16.036347   18.501810 O.3        1 MOL1        -0.5486
     126    H60     25.181348   16.530747   19.164257 H          1 MOL1         0.3769
     127    C1      18.913848   19.202550   16.513779 C.3        1 MOL1        -0.2400
     128    H1      19.956702   19.173891   16.172052 H          1 MOL1         0.0971
     129    H2      18.509353   18.183347   16.462898 H          1 MOL1         0.0971
     130    H3      18.345854   19.825790   15.811001 H          1 MOL1         0.0971
     131    C2      18.815266   19.768070   17.945410 C.3        1 MOL1        -0.1385
     132    H4      17.759773   19.820962   18.243984 H          1 MOL1         0.0960
     133    H5      19.193740   20.798033   17.955924 H          1 MOL1         0.0960
     134    C3      19.614603   18.912179   18.952685 C.3        1 MOL1        -0.1409
     135    H6      19.289149   17.864391   18.889290 H          1 MOL1         0.0960
     136    H7      20.679667   18.931937   18.683796 H          1 MOL1         0.0960
     137    C4      19.434658   19.415063   20.400598 C.3        1 MOL1        -0.1409
     138    H8      18.380700   19.335763   20.685554 H          1 MOL1         0.0960
     139    H9      19.698784   20.476508   20.465170 H          1 MOL1         0.0960
     140    C5      20.281894   18.610876   21.403495 C.3        1 MOL1        -0.1409
     141    H10     20.065374   17.544196   21.283511 H          1 MOL1         0.0960
     142    H11     21.345721   18.747371   21.171964 H          1 MOL1         0.0960
     143    C6      20.003221   19.031634   22.862056 C.3        1 MOL1        -0.1450
     144    H12     18.928243   18.959134   23.075951 H          1 MOL1         0.0960
     145    H13     20.293385   20.082389   23.001127 H          1 MOL1         0.0960
     146    C7      20.767569   18.144582   23.856210 C.3        1 MOL1         0.0172
     147    H14     20.372046   17.126569   23.827070 H          1 MOL1         0.0934
     148    H15     21.821896   18.104676   23.576839 H          1 MOL1         0.0934
     149    N1      20.685301   18.644812   25.281398 N.4        1 MOL1        -0.5956
     150    H16     21.255436   18.069637   25.911095 H          1 MOL1         0.3624
     151    H17     19.723662   18.629238   25.635450 H          1 MOL1         0.3624
     152    H18     21.025913   19.608466   25.361241 H          1 MOL1         0.3624
@<TRIPOS>BOND
    1     1     2    1
    2     1     3    1
    3     1     4    1
    4     4     5    1
    5     4     6    1
    6     6     7    1
    7     4     8    1
    8     8     9    1
    9     8    10    1
   10    10    11    1
   11     8    12    1
   12    12    13    1
   13    12    14    1
   14    14    15    1
   15     1    16    1
   16    14    16    1
   17    14    17    1
   18    17    18    1
   19    17    19    1
   20    17    20    1
   21    20    21    1
   22    22    23    1
   23    22    24    1
   24    22    25    1
   25    25    26    1
   26    25    27    1
   27    27    28    1
   28    25    29    1
   29    29    30    1
   30    29    31    1
   31    31    32    1
   32     3    33    1
   33    29    33    1
   34    33    34    1
   35    33    35    1
   36    35    36    1
   37    22    37    1
   38    35    37    1
   39    35    38    1
   40    38    39    1
   41    38    40    1
   42    38    41    1
   43    41    42    1
   44    43    44    1
   45    43    45    1
   46    43    46    1
   47    46    47    1
   48    46    48    1
   49    48    49    1
   50    46    50    1
   51    50    51    1
   52    50    52    1
   53    52    53    1
   54    24    54    1
   55    50    54    1
   56    54    55    1
   57    54    56    1
   58    56    57    1
   59    43    58    1
   60    56    58    1
   61    56    59    1
   62    59    60    1
   63    59    61    1
   64    59    62    1
   65    62    63    1
   66    64    65    1
   67    64    66    1
   68    64    67    1
   69    67    68    1
   70    67    69    1
   71    69    70    1
   72    67    71    1
   73    71    72    1
   74    71    73    1
   75    73    74    1
   76    45    75    1
   77    71    75    1
   78    75    76    1
   79    75    77    1
   80    77    78    1
   81    64    79    1
   82    77    79    1
   83    77    80    1
   84    80    81    1
   85    80    82    1
   86    80    83    1
   87    83    84    1
   88    85    86    1
   89    85    87    1
   90    85    88    1
   91    88    89    1
   92    88    90    1
   93    90    91    1
   94    88    92    1
   95    92    93    1
   96    92    94    1
   97    94    95    1
   98    66    96    1
   99    92    96    1
  100    96    97    1
  101    96    98    1
  102    98    99    1
  103    85   100    1
  104    98   100    1
  105    98   101    1
  106   101   102    1
  107   101   103    1
  108   101   104    1
  109   104   105    1
  110   106   107    1
  111    12   108    1
  112   106   108    1
  113   106   109    1
  114   109   110    1
  115   109   111    1
  116   111   112    1
  117   109   113    1
  118   113   114    1
  119   113   115    1
  120   115   116    1
  121    87   117    1
  122   113   117    1
  123   117   118    1
  124   117   119    1
  125   119   120    1
  126   106   121    1
  127   119   121    1
  128   119   122    1
  129   122   123    1
  130   122   124    1
  131   122   125    1
  132   125   126    1
  133   127   128    1
  134   127   129    1
  135   127   130    1
  136   127   131    1
  137   131   132    1
  138   131   133    1
  139   131   134    1
  140   134   135    1
  141   134   136    1
  142   134   137    1
  143   137   138    1
  144   137   139    1
  145   137   140    1
  146   140   141    1
  147   140   142    1
  148   140   143    1
  149   143   144    1
  150   143   145    1
  151   143   146    1
  152   146   147    1
  153   146   148    1
  154   146   149    1
  155   149   150    1
  156   149   151    1
  157   149   152    1
@<TRIPOS>SUBSTRUCTURE
       1 MOL1            1 RESIDUE      1      MOL     
       2 MOL1          152 RESIDUE      1      MOL     
@<SCITEGIC>MOL_PROPERTY
feprocess Rank
SciTegic.value.IntegerValue
6

@<SCITEGIC>MOL_PROPERTY
Conf_Id
SciTegic.value.IntegerValue
261

@<SCITEGIC>MOL_PROPERTY
Probability
SciTegic.value.DoubleValue
0.06

@<SCITEGIC>MOL_PROPERTY
G
SciTegic.value.DoubleValue
576.852

@<SCITEGIC>MOL_PROPERTY
E
SciTegic.value.DoubleValue
374.776

@<SCITEGIC>MOL_PROPERTY
-TS
SciTegic.value.DoubleValue
202.076

@<SCITEGIC>MOL_PROPERTY
U+W
SciTegic.value.DoubleValue
240.640

@<SCITEGIC>MOL_PROPERTY
U
SciTegic.value.DoubleValue
326.991

@<SCITEGIC>MOL_PROPERTY
W
SciTegic.value.DoubleValue
-86.351

@<SCITEGIC>MOL_PROPERTY
W(PB)
SciTegic.value.DoubleValue
-92.525

@<SCITEGIC>MOL_PROPERTY
W(SA)
SciTegic.value.DoubleValue
6.174

@<SCITEGIC>MOL_PROPERTY
Valence
SciTegic.value.DoubleValue
146.649

@<SCITEGIC>MOL_PROPERTY
Coulomb
SciTegic.value.DoubleValue
206.064

@<SCITEGIC>MOL_PROPERTY
VdW
SciTegic.value.DoubleValue
-25.722

@<SCITEGIC>MOL_PROPERTY
VdW6
SciTegic.value.DoubleValue
-181.825

@<SCITEGIC>MOL_PROPERTY
VdW12
SciTegic.value.DoubleValue
156.103

@<SCITEGIC>MOL_PROPERTY
Bond
SciTegic.value.DoubleValue
4.784

@<SCITEGIC>MOL_PROPERTY
Angle
SciTegic.value.DoubleValue
12.297

@<SCITEGIC>MOL_PROPERTY
Pdih
SciTegic.value.DoubleValue
129.568

@<SCITEGIC>MOL_PROPERTY
Idih
SciTegic.value.DoubleValue
0.000

@<SCITEGIC>MOL_PROPERTY
Tether
SciTegic.value.DoubleValue
0.000

@<TRIPOS>MOLECULE
CD_guest-s14_fast_vm2_rndm.mol2 : feprocess host+ligand conformer 7
         152         157           2
SMALL
USER_CHARGES
 
@<TRIPOS>ATOM
       1    C1      16.139203   15.133349   21.674094 C.3        1 MOL1         0.2972
       2    H1      15.061409   14.993958   21.828816 H          1 MOL1         0.0751
       3    O1      16.470392   16.507191   21.399002 O.3        1 MOL1        -0.3740
       4    C2      16.916815   14.702117   22.938625 C.3        1 MOL1         0.1003
       5    H2      16.743757   13.628362   23.088195 H          1 MOL1         0.0783
       6    O2      16.454991   15.425240   24.091325 O.3        1 MOL1        -0.5519
       7    H3      15.981095   16.227969   23.760483 H          1 MOL1         0.3769
       8    C3      18.431816   14.924047   22.735117 C.3        1 MOL1         0.1053
       9    H4      18.600538   16.004829   22.661655 H          1 MOL1         0.0783
      10    O3      19.137163   14.407885   23.866818 O.3        1 MOL1        -0.5519
      11    H5      18.618555   14.714804   24.644356 H          1 MOL1         0.3769
      12    C4      18.938470   14.257329   21.428668 C.3        1 MOL1         0.1018
      13    H6      19.039841   13.177976   21.604087 H          1 MOL1         0.0783
      14    C5      18.004244   14.518222   20.209931 C.3        1 MOL1         0.1043
      15    H7      18.155779   15.558175   19.894760 H          1 MOL1         0.0783
      16    O4      16.608916   14.336009   20.567790 O.3        1 MOL1        -0.3740
      17    C6      18.318057   13.623957   18.986924 C.3        1 MOL1         0.0138
      18    H8      19.275051   13.946777   18.554982 H          1 MOL1         0.0794
      19    H9      17.544405   13.787616   18.224675 H          1 MOL1         0.0794
      20    O5      18.387089   12.236405   19.337388 O.3        1 MOL1        -0.5486
      21    H10     18.507105   11.724586   18.507805 H          1 MOL1         0.3769
      22    C7      14.824732   20.199168   20.515875 C.3        1 MOL1         0.2972
      23    H11     14.197636   21.036982   20.185006 H          1 MOL1         0.0751
      24    O6      16.169614   20.637523   20.817171 O.3        1 MOL1        -0.3740
      25    C8      14.203240   19.484671   21.749544 C.3        1 MOL1         0.1003
      26    H12     13.240311   19.068439   21.425836 H          1 MOL1         0.0783
      27    O7      13.966862   20.383548   22.842412 O.3        1 MOL1        -0.5519
      28    H13     14.853636   20.693592   23.155166 H          1 MOL1         0.3769
      29    C9      15.101638   18.305899   22.195042 C.3        1 MOL1         0.1053
      30    H14     16.061583   18.714597   22.539903 H          1 MOL1         0.0783
      31    O8      14.471685   17.587217   23.260347 O.3        1 MOL1        -0.5519
      32    H15     14.111315   18.278421   23.859918 H          1 MOL1         0.3769
      33    C10     15.377120   17.351625   21.007703 C.3        1 MOL1         0.1018
      34    H16     14.463901   16.781161   20.793081 H          1 MOL1         0.0783
      35    C11     15.824434   18.106121   19.727375 C.3        1 MOL1         0.1043
      36    H17     16.824369   18.505443   19.913385 H          1 MOL1         0.0783
      37    O9      14.918183   19.207324   19.465962 O.3        1 MOL1        -0.3740
      38    C12     15.939942   17.220036   18.459117 C.3        1 MOL1         0.0138
      39    H18     16.964042   16.830019   18.401677 H          1 MOL1         0.0794
      40    H19     15.791730   17.853405   17.574387 H          1 MOL1         0.0794
      41    O10     15.015125   16.126224   18.442119 O.3        1 MOL1        -0.5486
      42    H20     15.346943   15.454919   19.081699 H          1 MOL1         0.3769
      43    C13     18.514388   23.887187   21.876722 C.3        1 MOL1         0.2972
      44    H21     18.906814   24.859869   22.200061 H          1 MOL1         0.0751
      45    O11     19.549416   23.061683   21.303304 O.3        1 MOL1        -0.3740
      46    C14     17.867769   23.143201   23.074300 C.3        1 MOL1         0.1003
      47    H22     17.051346   23.776324   23.445679 H          1 MOL1         0.0783
      48    O12     18.809865   22.915433   24.135205 O.3        1 MOL1        -0.5519
      49    H23     19.575827   23.520105   23.981977 H          1 MOL1         0.3769
      50    C15     17.266475   21.794444   22.623567 C.3        1 MOL1         0.1053
      51    H24     18.102308   21.148668   22.338052 H          1 MOL1         0.0783
      52    O13     16.568359   21.209283   23.725682 O.3        1 MOL1        -0.5519
      53    H25     17.173520   21.334367   24.491677 H          1 MOL1         0.3769
      54    C16     16.330591   21.950914   21.395954 C.3        1 MOL1         0.1018
      55    H26     15.374972   22.374886   21.731312 H          1 MOL1         0.0783
      56    C17     16.950333   22.855954   20.293438 C.3        1 MOL1         0.1043
      57    H27     17.763794   22.296902   19.813505 H          1 MOL1         0.0783
      58    O14     17.490982   24.069616   20.875560 O.3        1 MOL1        -0.3740
      59    C18     15.948200   23.247665   19.181296 C.3        1 MOL1         0.0138
      60    H28     15.735176   22.356720   18.575268 H          1 MOL1         0.0794
      61    H29     16.426863   23.984165   18.522021 H          1 MOL1         0.0794
      62    O15     14.726804   23.774806   19.714047 O.3        1 MOL1        -0.5486
      63    H30     14.177325   24.077188   18.958260 H          1 MOL1         0.3769
      64    C19     23.665458   22.823554   21.068867 C.3        1 MOL1         0.2972
      65    H31     24.741380   22.958983   20.898515 H          1 MOL1         0.0751
      66    O16     23.338689   21.453039   21.380584 O.3        1 MOL1        -0.3740
      67    C20     23.162932   23.726761   22.222603 C.3        1 MOL1         0.1003
      68    H32     23.309828   24.767748   21.906090 H          1 MOL1         0.0783
      69    O17     23.900698   23.503247   23.433388 O.3        1 MOL1        -0.5519
      70    H33     23.877741   22.530496   23.621026 H          1 MOL1         0.3769
      71    C21     21.647440   23.511773   22.456943 C.3        1 MOL1         0.1053
      72    H34     21.498725   22.487022   22.825257 H          1 MOL1         0.0783
      73    O18     21.197459   24.451303   23.439201 O.3        1 MOL1        -0.5519
      74    H35     21.919195   24.480859   24.108375 H          1 MOL1         0.3769
      75    C22     20.843452   23.677045   21.136509 C.3        1 MOL1         0.1018
      76    H36     20.750826   24.746219   20.907754 H          1 MOL1         0.0783
      77    C23     21.503635   22.957523   19.925912 C.3        1 MOL1         0.1043
      78    H37     21.339674   21.878649   20.035482 H          1 MOL1         0.0783
      79    O19     22.929107   23.207679   19.890220 O.3        1 MOL1        -0.3740
      80    C24     20.897208   23.377990   18.564003 C.3        1 MOL1         0.0138
      81    H38     19.859139   23.024845   18.516635 H          1 MOL1         0.0794
      82    H39     21.452856   22.870048   17.764658 H          1 MOL1         0.0794
      83    O20     20.928279   24.795526   18.357573 O.3        1 MOL1        -0.5486
      84    H40     20.229837   25.195185   18.918285 H          1 MOL1         0.3769
      85    C25     24.937855   17.704261   22.005225 C.3        1 MOL1         0.2972
      86    H41     25.565283   16.822227   22.188409 H          1 MOL1         0.0751
      87    O21     23.586859   17.337550   21.671550 O.3        1 MOL1        -0.3740
      88    C26     24.896984   18.594291   23.269307 C.3        1 MOL1         0.1003
      89    H42     25.922615   18.931394   23.468503 H          1 MOL1         0.0783
      90    O22     24.414399   17.850944   24.400578 O.3        1 MOL1        -0.5519
      91    H43     24.082690   16.984054   24.058911 H          1 MOL1         0.3769
      92    C27     24.018608   19.843326   23.027351 C.3        1 MOL1         0.1053
      93    H44     22.980801   19.513371   22.906122 H          1 MOL1         0.0783
      94    O23     24.111684   20.706777   24.163055 O.3        1 MOL1        -0.5519
      95    H45     24.022935   20.108060   24.938592 H          1 MOL1         0.3769
      96    C28     24.440098   20.594825   21.739118 C.3        1 MOL1         0.1018
      97    H46     25.356028   21.162119   21.951739 H          1 MOL1         0.0783
      98    C29     24.669561   19.642533   20.529830 C.3        1 MOL1         0.1043
      99    H47     23.685291   19.299144   20.187900 H          1 MOL1         0.0783
     100    O24     25.463216   18.489855   20.915452 O.3        1 MOL1        -0.3740
     101    C30     25.356108   20.331070   19.326212 C.3        1 MOL1         0.0138
     102    H48     24.646112   21.039712   18.878416 H          1 MOL1         0.0794
     103    H49     25.580483   19.569886   18.566884 H          1 MOL1         0.0794
     104    O25     26.552148   21.020439   19.710539 O.3        1 MOL1        -0.5486
     105    H50     26.969653   21.371108   18.893705 H          1 MOL1         0.3769
     106    C31     21.287022   14.000804   20.741580 C.3        1 MOL1         0.2972
     107    H51     20.919150   13.030292   20.384160 H          1 MOL1         0.0751
     108    O26     20.201884   14.876521   21.114288 O.3        1 MOL1        -0.3740
     109    C32     22.233163   13.830099   21.961730 C.3        1 MOL1         0.1003
     110    H52     23.096029   13.242332   21.622322 H          1 MOL1         0.0783
     111    O27     21.595384   13.131654   23.041110 O.3        1 MOL1        -0.5519
     112    H53     20.776549   13.636173   23.278499 H          1 MOL1         0.3769
     113    C33     22.754794   15.209616   22.434419 C.3        1 MOL1         0.1053
     114    H54     21.901152   15.793541   22.804292 H          1 MOL1         0.0783
     115    O28     23.712029   15.034833   23.484070 O.3        1 MOL1        -0.5519
     116    H55     23.329955   14.339641   24.065690 H          1 MOL1         0.3769
     117    C34     23.396336   15.977114   21.252383 C.3        1 MOL1         0.1018
     118    H56     24.344964   15.490138   20.990460 H          1 MOL1         0.0783
     119    C35     22.480037   16.005758   19.999587 C.3        1 MOL1         0.1043
     120    H57     21.602574   16.621012   20.227584 H          1 MOL1         0.0783
     121    O29     22.043967   14.657620   19.698243 O.3        1 MOL1        -0.3740
     122    C36     23.141821   16.622724   18.738974 C.3        1 MOL1         0.0138
     123    H58     22.958417   17.704158   18.744779 H          1 MOL1         0.0794
     124    H59     22.641995   16.220270   17.847790 H          1 MOL1         0.0794
     125    O30     24.552778   16.384656   18.663177 O.3        1 MOL1        -0.5486
     126    H60     24.981726   16.948974   19.346888 H          1 MOL1         0.3769
     127    C1      20.587972   18.075624   24.389575 C.3        1 MOL1        -0.2400
     128    H1      20.247116   17.036525   24.299845 H          1 MOL1         0.0971
     129    H2      21.679178   18.085263   24.283324 H          1 MOL1         0.0971
     130    H3      20.345885   18.422463   25.402226 H          1 MOL1         0.0971
     131    C2      19.915355   18.975189   23.331899 C.3        1 MOL1        -0.1385
     132    H4      20.234297   20.017350   23.477973 H          1 MOL1         0.0960
     133    H5      18.826383   18.952757   23.480552 H          1 MOL1         0.0960
     134    C3      20.256294   18.520079   21.896756 C.3        1 MOL1        -0.1409
     135    H6      21.337663   18.584125   21.735624 H          1 MOL1         0.0960
     136    H7      19.978156   17.467821   21.770796 H          1 MOL1         0.0960
     137    C4      19.534161   19.372218   20.837006 C.3        1 MOL1        -0.1409
     138    H8      19.858764   20.415779   20.928503 H          1 MOL1         0.0960
     139    H9      18.458840   19.354160   21.043594 H          1 MOL1         0.0960
     140    C5      19.791054   18.862974   19.403222 C.3        1 MOL1        -0.1409
     141    H10     20.871385   18.849172   19.207476 H          1 MOL1         0.0960
     142    H11     19.435047   17.826887   19.315773 H          1 MOL1         0.0960
     143    C6      19.092294   19.746533   18.347429 C.3        1 MOL1        -0.1450
     144    H12     19.509895   20.758828   18.386627 H          1 MOL1         0.0960
     145    H13     18.022802   19.836991   18.575609 H          1 MOL1         0.0960
     146    C7      19.267389   19.174168   16.931043 C.3        1 MOL1         0.0172
     147    H14     20.331293   19.114801   16.686057 H          1 MOL1         0.0934
     148    H15     18.847275   18.165792   16.886929 H          1 MOL1         0.0934
     149    N1      18.587566   20.009353   15.865899 N.4        1 MOL1        -0.5956
     150    H16     18.712820   19.605246   14.931409 H          1 MOL1         0.3624
     151    H17     17.577921   20.085014   16.025404 H          1 MOL1         0.3624
     152    H18     18.962722   20.962443   15.830089 H          1 MOL1         0.3624
@<TRIPOS>BOND
    1     1     2    1
    2     1     3    1
    3     1     4    1
    4     4     5    1
    5     4     6    1
    6     6     7    1
    7     4     8    1
    8     8     9    1
    9     8    10    1
   10    10    11    1
   11     8    12    1
   12    12    13    1
   13    12    14    1
   14    14    15    1
   15     1    16    1
   16    14    16    1
   17    14    17    1
   18    17    18    1
   19    17    19    1
   20    17    20    1
   21    20    21    1
   22    22    23    1
   23    22    24    1
   24    22    25    1
   25    25    26    1
   26    25    27    1
   27    27    28    1
   28    25    29    1
   29    29    30    1
   30    29    31    1
   31    31    32    1
   32     3    33    1
   33    29    33    1
   34    33    34    1
   35    33    35    1
   36    35    36    1
   37    22    37    1
   38    35    37    1
   39    35    38    1
   40    38    39    1
   41    38    40    1
   42    38    41    1
   43    41    42    1
   44    43    44    1
   45    43    45    1
   46    43    46    1
   47    46    47    1
   48    46    48    1
   49    48    49    1
   50    46    50    1
   51    50    51    1
   52    50    52    1
   53    52    53    1
   54    24    54    1
   55    50    54    1
   56    54    55    1
   57    54    56    1
   58    56    57    1
   59    43    58    1
   60    56    58    1
   61    56    59    1
   62    59    60    1
   63    59    61    1
   64    59    62    1
   65    62    63    1
   66    64    65    1
   67    64    66    1
   68    64    67    1
   69    67    68    1
   70    67    69    1
   71    69    70    1
   72    67    71    1
   73    71    72    1
   74    71    73    1
   75    73    74    1
   76    45    75    1
   77    71    75    1
   78    75    76    1
   79    75    77    1
   80    77    78    1
   81    64    79    1
   82    77    79    1
   83    77    80    1
   84    80    81    1
   85    80    82    1
   86    80    83    1
   87    83    84    1
   88    85    86    1
   89    85    87    1
   90    85    88    1
   91    88    89    1
   92    88    90    1
   93    90    91    1
   94    88    92    1
   95    92    93    1
   96    92    94    1
   97    94    95    1
   98    66    96    1
   99    92    96    1
  100    96    97    1
  101    96    98    1
  102    98    99    1
  103    85   100    1
  104    98   100    1
  105    98   101    1
  106   101   102    1
  107   101   103    1
  108   101   104    1
  109   104   105    1
  110   106   107    1
  111    12   108    1
  112   106   108    1
  113   106   109    1
  114   109   110    1
  115   109   111    1
  116   111   112    1
  117   109   113    1
  118   113   114    1
  119   113   115    1
  120   115   116    1
  121    87   117    1
  122   113   117    1
  123   117   118    1
  124   117   119    1
  125   119   120    1
  126   106   121    1
  127   119   121    1
  128   119   122    1
  129   122   123    1
  130   122   124    1
  131   122   125    1
  132   125   126    1
  133   127   128    1
  134   127   129    1
  135   127   130    1
  136   127   131    1
  137   131   132    1
  138   131   133    1
  139   131   134    1
  140   134   135    1
  141   134   136    1
  142   134   137    1
  143   137   138    1
  144   137   139    1
  145   137   140    1
  146   140   141    1
  147   140   142    1
  148   140   143    1
  149   143   144    1
  150   143   145    1
  151   143   146    1
  152   146   147    1
  153   146   148    1
  154   146   149    1
  155   149   150    1
  156   149   151    1
  157   149   152    1
@<TRIPOS>SUBSTRUCTURE
       1 MOL1            1 RESIDUE      1      MOL     
       2 MOL1          152 RESIDUE      1      MOL     
@<SCITEGIC>MOL_PROPERTY
feprocess Rank
SciTegic.value.IntegerValue
7

@<SCITEGIC>MOL_PROPERTY
Conf_Id
SciTegic.value.IntegerValue
221

@<SCITEGIC>MOL_PROPERTY
Probability
SciTegic.value.DoubleValue
0.06

@<SCITEGIC>MOL_PROPERTY
G
SciTegic.value.DoubleValue
576.870

@<SCITEGIC>MOL_PROPERTY
E
SciTegic.value.DoubleValue
375.076

@<SCITEGIC>MOL_PROPERTY
-TS
SciTegic.value.DoubleValue
201.794

@<SCITEGIC>MOL_PROPERTY
U+W
SciTegic.value.DoubleValue
240.940

@<SCITEGIC>MOL_PROPERTY
U
SciTegic.value.DoubleValue
333.285

@<SCITEGIC>MOL_PROPERTY
W
SciTegic.value.DoubleValue
-92.345

@<SCITEGIC>MOL_PROPERTY
W(PB)
SciTegic.value.DoubleValue
-98.483

@<SCITEGIC>MOL_PROPERTY
W(SA)
SciTegic.value.DoubleValue
6.138

@<SCITEGIC>MOL_PROPERTY
Valence
SciTegic.value.DoubleValue
148.284

@<SCITEGIC>MOL_PROPERTY
Coulomb
SciTegic.value.DoubleValue
211.451

@<SCITEGIC>MOL_PROPERTY
VdW
SciTegic.value.DoubleValue
-26.451

@<SCITEGIC>MOL_PROPERTY
VdW6
SciTegic.value.DoubleValue
-180.236

@<SCITEGIC>MOL_PROPERTY
VdW12
SciTegic.value.DoubleValue
153.785

@<SCITEGIC>MOL_PROPERTY
Bond
SciTegic.value.DoubleValue
4.708

@<SCITEGIC>MOL_PROPERTY
Angle
SciTegic.value.DoubleValue
11.585

@<SCITEGIC>MOL_PROPERTY
Pdih
SciTegic.value.DoubleValue
131.992

@<SCITEGIC>MOL_PROPERTY
Idih
SciTegic.value.DoubleValue
0.000

@<SCITEGIC>MOL_PROPERTY
Tether
SciTegic.value.DoubleValue
0.000

@<TRIPOS>MOLECULE
CD_guest-s14_fast_vm2_rndm.mol2 : feprocess host+ligand conformer 8
         152         157           2
SMALL
USER_CHARGES
 
@<TRIPOS>ATOM
       1    C1      16.392989   15.298605   21.853574 C.3        1 MOL1         0.2972
       2    H1      15.331364   15.242702   22.126446 H          1 MOL1         0.0751
       3    O1      16.740502   16.594225   21.325761 O.3        1 MOL1        -0.3740
       4    C2      17.277265   15.021068   23.092239 C.3        1 MOL1         0.1003
       5    H2      17.048476   14.003929   23.436178 H          1 MOL1         0.0783
       6    O2      16.998569   15.954591   24.149519 O.3        1 MOL1        -0.5519
       7    H3      16.166726   16.429119   23.907313 H          1 MOL1         0.3769
       8    C3      18.774024   15.080440   22.712393 C.3        1 MOL1         0.1053
       9    H4      19.010782   16.114500   22.440453 H          1 MOL1         0.0783
      10    O3      19.555205   14.695257   23.846025 O.3        1 MOL1        -0.5519
      11    H5      19.149470   15.182015   24.598530 H          1 MOL1         0.3769
      12    C4      19.104389   14.191078   21.486895 C.3        1 MOL1         0.1018
      13    H6      19.171751   13.144817   21.813403 H          1 MOL1         0.0783
      14    C5      18.062563   14.334073   20.339259 C.3        1 MOL1         0.1043
      15    H7      18.232972   15.302106   19.851370 H          1 MOL1         0.0783
      16    O4      16.708053   14.305171   20.856235 O.3        1 MOL1        -0.3740
      17    C6      18.197176   13.245838   19.247581 C.3        1 MOL1         0.0138
      18    H8      19.121174   13.431429   18.683305 H          1 MOL1         0.0794
      19    H9      17.359461   13.348485   18.544795 H          1 MOL1         0.0794
      20    O5      18.224283   11.924635   19.801875 O.3        1 MOL1        -0.5486
      21    H10     18.231853   11.287641   19.054274 H          1 MOL1         0.3769
      22    C7      14.921620   20.284999   20.659492 C.3        1 MOL1         0.2972
      23    H11     14.251551   21.095011   20.343465 H          1 MOL1         0.0751
      24    O6      16.195046   20.792005   21.108384 O.3        1 MOL1        -0.3740
      25    C8      14.290567   19.450421   21.806483 C.3        1 MOL1         0.1003
      26    H12     13.364227   19.009889   21.415287 H          1 MOL1         0.0783
      27    O7      13.972105   20.267448   22.943473 O.3        1 MOL1        -0.5519
      28    H13     14.798468   20.746096   23.207783 H          1 MOL1         0.3769
      29    C9      15.232058   18.290909   22.217545 C.3        1 MOL1         0.1053
      30    H14     16.139318   18.730949   22.649874 H          1 MOL1         0.0783
      31    O8      14.579455   17.473858   23.195457 O.3        1 MOL1        -0.5519
      32    H15     14.123936   18.109208   23.793382 H          1 MOL1         0.3769
      33    C10     15.636041   17.448036   20.977345 C.3        1 MOL1         0.1018
      34    H16     14.767486   16.865498   20.643840 H          1 MOL1         0.0783
      35    C11     16.130328   18.336624   19.806012 C.3        1 MOL1         0.1043
      36    H17     17.086550   18.787062   20.099039 H          1 MOL1         0.0783
      37    O9      15.168108   19.388437   19.553540 O.3        1 MOL1        -0.3740
      38    C12     16.381724   17.554624   18.491460 C.3        1 MOL1         0.0138
      39    H18     17.354491   17.051704   18.567507 H          1 MOL1         0.0794
      40    H19     16.454261   18.273791   17.664828 H          1 MOL1         0.0794
      41    O10     15.364780   16.585057   18.212569 O.3        1 MOL1        -0.5486
      42    H20     15.470412   15.854593   18.860606 H          1 MOL1         0.3769
      43    C13     18.386025   24.186349   21.812544 C.3        1 MOL1         0.2972
      44    H21     18.794104   25.187966   21.998957 H          1 MOL1         0.0751
      45    O11     19.424026   23.225064   21.520777 O.3        1 MOL1        -0.3740
      46    C14     17.590810   23.693080   23.046067 C.3        1 MOL1         0.1003
      47    H22     16.735830   24.368403   23.181218 H          1 MOL1         0.0783
      48    O12     18.398729   23.711916   24.233397 O.3        1 MOL1        -0.5519
      49    H23     19.345859   23.725441   23.946291 H          1 MOL1         0.3769
      50    C15     17.042313   22.271881   22.791819 C.3        1 MOL1         0.1053
      51    H24     17.902635   21.599147   22.722054 H          1 MOL1         0.0783
      52    O13     16.215381   21.875711   23.889416 O.3        1 MOL1        -0.5519
      53    H25     16.714400   22.153342   24.690536 H          1 MOL1         0.3769
      54    C16     16.247972   22.187970   21.462902 C.3        1 MOL1         0.1018
      55    H26     15.247900   22.609462   21.630838 H          1 MOL1         0.0783
      56    C17     16.949176   22.921874   20.282065 C.3        1 MOL1         0.1043
      57    H27     17.788874   22.299029   19.951535 H          1 MOL1         0.0783
      58    O14     17.464944   24.210092   20.702367 O.3        1 MOL1        -0.3740
      59    C18     16.033106   23.135116   19.053341 C.3        1 MOL1         0.0138
      60    H28     15.861803   22.162218   18.572968 H          1 MOL1         0.0794
      61    H29     16.561760   23.768410   18.328307 H          1 MOL1         0.0794
      62    O15     14.778267   23.727670   19.410555 O.3        1 MOL1        -0.5486
      63    H30     14.285564   23.906810   18.580015 H          1 MOL1         0.3769
      64    C19     23.500105   22.750928   20.963611 C.3        1 MOL1         0.2972
      65    H31     24.567936   22.866732   20.738281 H          1 MOL1         0.0751
      66    O16     23.146008   21.358749   21.116854 O.3        1 MOL1        -0.3740
      67    C20     23.108651   23.552843   22.235806 C.3        1 MOL1         0.1003
      68    H32     23.293867   24.612136   22.014583 H          1 MOL1         0.0783
      69    O17     23.892388   23.180420   23.378676 O.3        1 MOL1        -0.5519
      70    H33     23.671497   22.236594   23.581619 H          1 MOL1         0.3769
      71    C21     21.599650   23.390418   22.535223 C.3        1 MOL1         0.1053
      72    H34     21.411585   22.337544   22.785970 H          1 MOL1         0.0783
      73    O18     21.241164   24.222957   23.641926 O.3        1 MOL1        -0.5519
      74    H35     21.972796   24.115662   24.290760 H          1 MOL1         0.3769
      75    C22     20.744218   23.758202   21.296853 C.3        1 MOL1         0.1018
      76    H36     20.733566   24.849798   21.179472 H          1 MOL1         0.0783
      77    C23     21.276989   23.113655   19.988038 C.3        1 MOL1         0.1043
      78    H37     21.045250   22.042720   20.019071 H          1 MOL1         0.0783
      79    O19     22.712779   23.283289   19.878314 O.3        1 MOL1        -0.3740
      80    C24     20.618977   23.702034   18.716572 C.3        1 MOL1         0.0138
      81    H38     19.561282   23.408042   18.703474 H          1 MOL1         0.0794
      82    H39     21.096883   23.256008   17.834578 H          1 MOL1         0.0794
      83    O20     20.723745   25.130300   18.665463 O.3        1 MOL1        -0.5486
      84    H40     20.306375   25.431736   17.829573 H          1 MOL1         0.3769
      85    C25     24.755105   17.611583   21.957498 C.3        1 MOL1         0.2972
      86    H41     25.400010   16.777752   22.263099 H          1 MOL1         0.0751
      87    O21     23.587173   17.145113   21.251125 O.3        1 MOL1        -0.3740
      88    C26     24.318050   18.435232   23.197569 C.3        1 MOL1         0.1003
      89    H42     25.234517   18.811565   23.670639 H          1 MOL1         0.0783
      90    O22     23.593299   17.639350   24.148666 O.3        1 MOL1        -0.5519
      91    H43     23.800588   16.693095   23.957992 H          1 MOL1         0.3769
      92    C27     23.460291   19.649579   22.780688 C.3        1 MOL1         0.1053
      93    H44     22.516207   19.268087   22.374123 H          1 MOL1         0.0783
      94    O23     23.205563   20.446702   23.940535 O.3        1 MOL1        -0.5519
      95    H45     22.992154   19.790588   24.641843 H          1 MOL1         0.3769
      96    C28     24.154284   20.493335   21.683616 C.3        1 MOL1         0.1018
      97    H46     24.972193   21.062073   22.145397 H          1 MOL1         0.0783
      98    C29     24.717893   19.610598   20.533684 C.3        1 MOL1         0.1043
      99    H47     23.871722   19.216882   19.956965 H          1 MOL1         0.0783
     100    O24     25.476409   18.499709   21.077129 O.3        1 MOL1        -0.3740
     101    C30     25.623614   20.385798   19.547020 C.3        1 MOL1         0.0138
     102    H48     24.993262   21.061751   18.953440 H          1 MOL1         0.0794
     103    H49     26.077856   19.667952   18.850938 H          1 MOL1         0.0794
     104    O25     26.640278   21.137701   20.221568 O.3        1 MOL1        -0.5486
     105    H50     27.224328   21.530856   19.536833 H          1 MOL1         0.3769
     106    C31     21.385042   13.710574   20.680178 C.3        1 MOL1         0.2972
     107    H51     20.962586   12.729082   20.428993 H          1 MOL1         0.0751
     108    O26     20.352319   14.680656   20.957740 O.3        1 MOL1        -0.3740
     109    C32     22.353147   13.619915   21.887801 C.3        1 MOL1         0.1003
     110    H52     23.198870   12.994445   21.573133 H          1 MOL1         0.0783
     111    O27     21.735641   13.013043   23.031940 O.3        1 MOL1        -0.5519
     112    H53     20.982712   13.597735   23.300881 H          1 MOL1         0.3769
     113    C33     22.907753   15.021745   22.242409 C.3        1 MOL1         0.1053
     114    H54     22.073908   15.635203   22.610525 H          1 MOL1         0.0783
     115    O28     23.895272   14.876997   23.269185 O.3        1 MOL1        -0.5519
     116    H55     23.531892   14.192146   23.875964 H          1 MOL1         0.3769
     117    C34     23.517087   15.726079   20.995976 C.3        1 MOL1         0.1018
     118    H56     24.511569   15.305511   20.800672 H          1 MOL1         0.0783
     119    C35     22.643776   15.570971   19.718724 C.3        1 MOL1         0.1043
     120    H57     21.776893   16.231942   19.822419 H          1 MOL1         0.0783
     121    O29     22.168601   14.209963   19.576613 O.3        1 MOL1        -0.3740
     122    C36     23.370683   15.987983   18.416519 C.3        1 MOL1         0.0138
     123    H58     23.507917   17.077525   18.425551 H          1 MOL1         0.0794
     124    H59     22.720564   15.748649   17.564606 H          1 MOL1         0.0794
     125    O30     24.640448   15.343459   18.259117 O.3        1 MOL1        -0.5486
     126    H60     25.271415   15.773911   18.874821 H          1 MOL1         0.3769
     127    C1      20.151934   18.278796   24.087912 C.3        1 MOL1        -0.2400
     128    H1      20.889865   19.033878   24.381399 H          1 MOL1         0.0971
     129    H2      19.707925   17.873323   25.005936 H          1 MOL1         0.0971
     130    H3      20.681849   17.458835   23.589490 H          1 MOL1         0.0971
     131    C2      19.057882   18.897969   23.190833 C.3        1 MOL1        -0.1385
     132    H4      18.551681   19.687823   23.761415 H          1 MOL1         0.0960
     133    H5      18.290841   18.146369   22.973555 H          1 MOL1         0.0960
     134    C3      19.595662   19.492026   21.866774 C.3        1 MOL1        -0.1409
     135    H6      18.783353   20.053741   21.393512 H          1 MOL1         0.0960
     136    H7      20.387737   20.220334   22.086777 H          1 MOL1         0.0960
     137    C4      20.112711   18.422662   20.872144 C.3        1 MOL1        -0.1409
     138    H8      19.300635   17.729737   20.614381 H          1 MOL1         0.0960
     139    H9      20.886443   17.817112   21.359965 H          1 MOL1         0.0960
     140    C5      20.714990   19.028941   19.580674 C.3        1 MOL1        -0.1409
     141    H10     21.532985   19.708615   19.849541 H          1 MOL1         0.0960
     142    H11     21.168278   18.220474   18.996171 H          1 MOL1         0.0960
     143    C6      19.686599   19.776566   18.697340 C.3        1 MOL1        -0.1450
     144    H12     19.236789   20.600367   19.262870 H          1 MOL1         0.0960
     145    H13     18.868239   19.102175   18.419389 H          1 MOL1         0.0960
     146    C7      20.322012   20.363111   17.423107 C.3        1 MOL1         0.0172
     147    H14     19.584148   20.977345   16.899812 H          1 MOL1         0.0934
     148    H15     21.168516   20.999910   17.693837 H          1 MOL1         0.0934
     149    N1      20.817470   19.314449   16.447553 N.4        1 MOL1        -0.5956
     150    H16     21.545373   18.724876   16.860513 H          1 MOL1         0.3624
     151    H17     21.217654   19.740981   15.604830 H          1 MOL1         0.3624
     152    H18     20.060795   18.696147   16.138074 H          1 MOL1         0.3624
@<TRIPOS>BOND
    1     1     2    1
    2     1     3    1
    3     1     4    1
    4     4     5    1
    5     4     6    1
    6     6     7    1
    7     4     8    1
    8     8     9    1
    9     8    10    1
   10    10    11    1
   11     8    12    1
   12    12    13    1
   13    12    14    1
   14    14    15    1
   15     1    16    1
   16    14    16    1
   17    14    17    1
   18    17    18    1
   19    17    19    1
   20    17    20    1
   21    20    21    1
   22    22    23    1
   23    22    24    1
   24    22    25    1
   25    25    26    1
   26    25    27    1
   27    27    28    1
   28    25    29    1
   29    29    30    1
   30    29    31    1
   31    31    32    1
   32     3    33    1
   33    29    33    1
   34    33    34    1
   35    33    35    1
   36    35    36    1
   37    22    37    1
   38    35    37    1
   39    35    38    1
   40    38    39    1
   41    38    40    1
   42    38    41    1
   43    41    42    1
   44    43    44    1
   45    43    45    1
   46    43    46    1
   47    46    47    1
   48    46    48    1
   49    48    49    1
   50    46    50    1
   51    50    51    1
   52    50    52    1
   53    52    53    1
   54    24    54    1
   55    50    54    1
   56    54    55    1
   57    54    56    1
   58    56    57    1
   59    43    58    1
   60    56    58    1
   61    56    59    1
   62    59    60    1
   63    59    61    1
   64    59    62    1
   65    62    63    1
   66    64    65    1
   67    64    66    1
   68    64    67    1
   69    67    68    1
   70    67    69    1
   71    69    70    1
   72    67    71    1
   73    71    72    1
   74    71    73    1
   75    73    74    1
   76    45    75    1
   77    71    75    1
   78    75    76    1
   79    75    77    1
   80    77    78    1
   81    64    79    1
   82    77    79    1
   83    77    80    1
   84    80    81    1
   85    80    82    1
   86    80    83    1
   87    83    84    1
   88    85    86    1
   89    85    87    1
   90    85    88    1
   91    88    89    1
   92    88    90    1
   93    90    91    1
   94    88    92    1
   95    92    93    1
   96    92    94    1
   97    94    95    1
   98    66    96    1
   99    92    96    1
  100    96    97    1
  101    96    98    1
  102    98    99    1
  103    85   100    1
  104    98   100    1
  105    98   101    1
  106   101   102    1
  107   101   103    1
  108   101   104    1
  109   104   105    1
  110   106   107    1
  111    12   108    1
  112   106   108    1
  113   106   109    1
  114   109   110    1
  115   109   111    1
  116   111   112    1
  117   109   113    1
  118   113   114    1
  119   113   115    1
  120   115   116    1
  121    87   117    1
  122   113   117    1
  123   117   118    1
  124   117   119    1
  125   119   120    1
  126   106   121    1
  127   119   121    1
  128   119   122    1
  129   122   123    1
  130   122   124    1
  131   122   125    1
  132   125   126    1
  133   127   128    1
  134   127   129    1
  135   127   130    1
  136   127   131    1
  137   131   132    1
  138   131   133    1
  139   131   134    1
  140   134   135    1
  141   134   136    1
  142   134   137    1
  143   137   138    1
  144   137   139    1
  145   137   140    1
  146   140   141    1
  147   140   142    1
  148   140   143    1
  149   143   144    1
  150   143   145    1
  151   143   146    1
  152   146   147    1
  153   146   148    1
  154   146   149    1
  155   149   150    1
  156   149   151    1
  157   149   152    1
@<TRIPOS>SUBSTRUCTURE
       1 MOL1            1 RESIDUE      1      MOL     
       2 MOL1          152 RESIDUE      1      MOL     
@<SCITEGIC>MOL_PROPERTY
feprocess Rank
SciTegic.value.IntegerValue
8

@<SCITEGIC>MOL_PROPERTY
Conf_Id
SciTegic.value.IntegerValue
448

@<SCITEGIC>MOL_PROPERTY
Probability
SciTegic.value.DoubleValue
0.04

@<SCITEGIC>MOL_PROPERTY
G
SciTegic.value.DoubleValue
577.133

@<SCITEGIC>MOL_PROPERTY
E
SciTegic.value.DoubleValue
373.055

@<SCITEGIC>MOL_PROPERTY
-TS
SciTegic.value.DoubleValue
204.078

@<SCITEGIC>MOL_PROPERTY
U+W
SciTegic.value.DoubleValue
238.918

@<SCITEGIC>MOL_PROPERTY
U
SciTegic.value.DoubleValue
333.525

@<SCITEGIC>MOL_PROPERTY
W
SciTegic.value.DoubleValue
-94.607

@<SCITEGIC>MOL_PROPERTY
W(PB)
SciTegic.value.DoubleValue
-100.709

@<SCITEGIC>MOL_PROPERTY
W(SA)
SciTegic.value.DoubleValue
6.102

@<SCITEGIC>MOL_PROPERTY
Valence
SciTegic.value.DoubleValue
146.745

@<SCITEGIC>MOL_PROPERTY
Coulomb
SciTegic.value.DoubleValue
214.236

@<SCITEGIC>MOL_PROPERTY
VdW
SciTegic.value.DoubleValue
-27.455

@<SCITEGIC>MOL_PROPERTY
VdW6
SciTegic.value.DoubleValue
-184.891

@<SCITEGIC>MOL_PROPERTY
VdW12
SciTegic.value.DoubleValue
157.435

@<SCITEGIC>MOL_PROPERTY
Bond
SciTegic.value.DoubleValue
4.736

@<SCITEGIC>MOL_PROPERTY
Angle
SciTegic.value.DoubleValue
12.213

@<SCITEGIC>MOL_PROPERTY
Pdih
SciTegic.value.DoubleValue
129.796

@<SCITEGIC>MOL_PROPERTY
Idih
SciTegic.value.DoubleValue
0.000

@<SCITEGIC>MOL_PROPERTY
Tether
SciTegic.value.DoubleValue
0.000

