@<TRIPOS>MOLECULE
CD_guest-s12_fast_vm2_rndm.mol2 : feprocess host+ligand conformer 1
         152         157           2
SMALL
USER_CHARGES
 
@<TRIPOS>ATOM
       1    C1      16.431266   15.398805   20.513132 C.3        1 MOL1         0.2972
       2    H1      15.427649   15.213904   20.108999 H          1 MOL1         0.0751
       3    O1      16.601988   16.783471   20.881323 O.3        1 MOL1        -0.3740
       4    C2      16.715705   14.492467   21.745301 C.3        1 MOL1         0.1003
       5    H2      16.654417   13.452873   21.397886 H          1 MOL1         0.0783
       6    O2      15.753332   14.681497   22.792850 O.3        1 MOL1        -0.5519
       7    H3      15.822051   15.624932   23.086309 H          1 MOL1         0.3769
       8    C3      18.151649   14.728858   22.274634 C.3        1 MOL1         0.1053
       9    H4      18.219292   15.759560   22.649203 H          1 MOL1         0.0783
      10    O3      18.438990   13.806990   23.331593 O.3        1 MOL1        -0.5519
      11    H5      17.628680   13.794348   23.888756 H          1 MOL1         0.3769
      12    C4      19.175639   14.555063   21.127825 C.3        1 MOL1         0.1018
      13    H6      19.205312   13.494815   20.843213 H          1 MOL1         0.0783
      14    C5      18.798310   15.395984   19.880042 C.3        1 MOL1         0.1043
      15    H7      18.879693   16.458155   20.140053 H          1 MOL1         0.0783
      16    O4      17.429361   15.095079   19.511152 O.3        1 MOL1        -0.3740
      17    C6      19.713579   15.159420   18.650487 C.3        1 MOL1         0.0138
      18    H8      20.562061   15.850827   18.712973 H          1 MOL1         0.0794
      19    H9      19.154947   15.422199   17.742300 H          1 MOL1         0.0794
      20    O5      20.203377   13.816094   18.555831 O.3        1 MOL1        -0.5486
      21    H10     20.873388   13.696436   19.268285 H          1 MOL1         0.3769
      22    C7      14.681944   20.339117   21.614160 C.3        1 MOL1         0.2972
      23    H11     14.007504   21.179487   21.823188 H          1 MOL1         0.0751
      24    O6      15.989464   20.784812   21.199505 O.3        1 MOL1        -0.3740
      25    C8      14.834312   19.439158   22.865390 C.3        1 MOL1         0.1003
      26    H12     13.849923   19.003146   23.080522 H          1 MOL1         0.0783
      27    O7      15.280758   20.181946   24.010791 O.3        1 MOL1        -0.5519
      28    H13     15.514182   21.091742   23.701610 H          1 MOL1         0.3769
      29    C9      15.816257   18.286394   22.569763 C.3        1 MOL1         0.1053
      30    H14     16.801988   18.733155   22.399834 H          1 MOL1         0.0783
      31    O8      15.870580   17.414880   23.702527 O.3        1 MOL1        -0.5519
      32    H15     15.896084   18.020826   24.477628 H          1 MOL1         0.3769
      33    C10     15.420405   17.501130   21.293721 C.3        1 MOL1         0.1018
      34    H16     14.591112   16.825565   21.542016 H          1 MOL1         0.0783
      35    C11     15.017000   18.430133   20.109623 C.3        1 MOL1         0.1043
      36    H17     15.936286   18.864801   19.696304 H          1 MOL1         0.0783
      37    O9      14.151997   19.506138   20.561592 O.3        1 MOL1        -0.3740
      38    C12     14.310586   17.685389   18.951795 C.3        1 MOL1         0.0138
      39    H18     15.051482   17.058980   18.436843 H          1 MOL1         0.0794
      40    H19     13.950600   18.427311   18.226396 H          1 MOL1         0.0794
      41    O10     13.224639   16.872752   19.413954 O.3        1 MOL1        -0.5486
      42    H20     12.773289   16.500806   18.624842 H          1 MOL1         0.3769
      43    C13     18.432984   24.066430   20.774361 C.3        1 MOL1         0.2972
      44    H21     18.902669   25.035960   20.564913 H          1 MOL1         0.0751
      45    O11     19.423875   23.042771   21.019168 O.3        1 MOL1        -0.3740
      46    C14     17.457742   24.165544   21.978772 C.3        1 MOL1         0.1003
      47    H22     16.664069   24.866904   21.689736 H          1 MOL1         0.0783
      48    O12     18.101406   24.661940   23.161461 O.3        1 MOL1        -0.5519
      49    H23     18.777215   23.987347   23.424546 H          1 MOL1         0.3769
      50    C15     16.798690   22.794090   22.259218 C.3        1 MOL1         0.1053
      51    H24     17.581202   22.105180   22.606759 H          1 MOL1         0.0783
      52    O13     15.804285   22.951708   23.275131 O.3        1 MOL1        -0.5519
      53    H25     16.207771   23.558761   23.936458 H          1 MOL1         0.3769
      54    C16     16.159725   22.196199   20.978214 C.3        1 MOL1         0.1018
      55    H26     15.205751   22.700768   20.779027 H          1 MOL1         0.0783
      56    C17     17.076626   22.319448   19.731239 C.3        1 MOL1         0.1043
      57    H27     17.890165   21.597125   19.847982 H          1 MOL1         0.0783
      58    O14     17.643316   23.648929   19.640751 O.3        1 MOL1        -0.3740
      59    C18     16.367837   21.981135   18.396438 C.3        1 MOL1         0.0138
      60    H28     16.198825   20.896981   18.353760 H          1 MOL1         0.0794
      61    H29     17.044549   22.235838   17.570027 H          1 MOL1         0.0794
      62    O15     15.121607   22.669851   18.239294 O.3        1 MOL1        -0.5486
      63    H30     14.456152   22.208631   18.793651 H          1 MOL1         0.3769
      64    C19     23.392272   22.487032   22.132629 C.3        1 MOL1         0.2972
      65    H31     24.418036   22.616004   22.500219 H          1 MOL1         0.0751
      66    O16     23.226821   21.226057   21.452933 O.3        1 MOL1        -0.3740
      67    C20     22.386561   22.555698   23.310919 C.3        1 MOL1         0.1003
      68    H32     22.512940   23.536162   23.788354 H          1 MOL1         0.0783
      69    O17     22.634822   21.521231   24.277733 O.3        1 MOL1        -0.5519
      70    H33     23.579564   21.253210   24.178162 H          1 MOL1         0.3769
      71    C21     20.932990   22.449542   22.798060 C.3        1 MOL1         0.1053
      72    H34     20.799879   21.442366   22.391067 H          1 MOL1         0.0783
      73    O18     20.037822   22.648646   23.895702 O.3        1 MOL1        -0.5519
      74    H35     20.423227   22.110923   24.624004 H          1 MOL1         0.3769
      75    C22     20.645796   23.462941   21.662173 C.3        1 MOL1         0.1018
      76    H36     20.559033   24.466641   22.098922 H          1 MOL1         0.0783
      77    C23     21.760216   23.456059   20.578842 C.3        1 MOL1         0.1043
      78    H37     21.690309   22.512789   20.021510 H          1 MOL1         0.0783
      79    O19     23.064496   23.542720   21.204870 O.3        1 MOL1        -0.3740
      80    C24     21.633089   24.607061   19.552184 C.3        1 MOL1         0.0138
      81    H38     20.768342   24.403466   18.906173 H          1 MOL1         0.0794
      82    H39     22.525613   24.605329   18.912229 H          1 MOL1         0.0794
      83    O20     21.476104   25.883108   20.185652 O.3        1 MOL1        -0.5486
      84    H40     21.488670   26.568659   19.482473 H          1 MOL1         0.3769
      85    C25     25.211754   17.628198   21.047132 C.3        1 MOL1         0.2972
      86    H41     25.887355   16.790788   20.829740 H          1 MOL1         0.0751
      87    O21     23.883419   17.179677   21.381380 O.3        1 MOL1        -0.3740
      88    C26     25.736501   18.490073   22.222090 C.3        1 MOL1         0.1003
      89    H42     26.690646   18.929745   21.903442 H          1 MOL1         0.0783
      90    O22     25.958839   17.701454   23.400992 O.3        1 MOL1        -0.5519
      91    H43     25.125348   17.198375   23.585463 H          1 MOL1         0.3769
      92    C27     24.751710   19.648703   22.517453 C.3        1 MOL1         0.1053
      93    H44     23.814596   19.212693   22.890680 H          1 MOL1         0.0783
      94    O23     25.321614   20.492713   23.524044 O.3        1 MOL1        -0.5519
      95    H45     25.748681   19.873937   24.159729 H          1 MOL1         0.3769
      96    C28     24.427637   20.458823   21.227718 C.3        1 MOL1         0.1018
      97    H46     25.275514   21.110482   20.977553 H          1 MOL1         0.0783
      98    C29     24.121506   19.552134   20.003899 C.3        1 MOL1         0.1043
      99    H47     23.132995   19.103162   20.142004 H          1 MOL1         0.0783
     100    O24     25.115825   18.503438   19.903545 O.3        1 MOL1        -0.3740
     101    C30     24.113640   20.355140   18.681855 C.3        1 MOL1         0.0138
     102    H48     25.148646   20.477561   18.335319 H          1 MOL1         0.0794
     103    H49     23.709995   21.359249   18.870105 H          1 MOL1         0.0794
     104    O25     23.318369   19.704392   17.683906 O.3        1 MOL1        -0.5486
     105    H50     23.665116   19.986831   16.809404 H          1 MOL1         0.3769
     106    C31     21.401932   13.980078   21.910741 C.3        1 MOL1         0.2972
     107    H51     20.909995   13.010732   22.064543 H          1 MOL1         0.0751
     108    O26     20.449615   15.017872   21.605955 O.3        1 MOL1        -0.3740
     109    C32     22.169387   14.384250   23.190315 C.3        1 MOL1         0.1003
     110    H52     22.937598   13.621209   23.371519 H          1 MOL1         0.0783
     111    O27     21.278879   14.443298   24.316801 O.3        1 MOL1        -0.5519
     112    H53     20.357594   14.391526   23.960550 H          1 MOL1         0.3769
     113    C33     22.875595   15.743572   22.994733 C.3        1 MOL1         0.1053
     114    H54     22.100897   16.513174   22.919726 H          1 MOL1         0.0783
     115    O28     23.699875   16.015983   24.130923 O.3        1 MOL1        -0.5519
     116    H55     23.143460   15.779439   24.906684 H          1 MOL1         0.3769
     117    C34     23.717186   15.785510   21.694037 C.3        1 MOL1         0.1018
     118    H56     24.674827   15.279515   21.874928 H          1 MOL1         0.0783
     119    C35     22.992328   15.157587   20.469096 C.3        1 MOL1         0.1043
     120    H57     22.227901   15.872305   20.141364 H          1 MOL1         0.0783
     121    O29     22.344998   13.907954   20.822036 O.3        1 MOL1        -0.3740
     122    C36     23.926004   14.909203   19.260773 C.3        1 MOL1         0.0138
     123    H58     24.215884   15.881485   18.838962 H          1 MOL1         0.0794
     124    H59     23.362739   14.372414   18.485565 H          1 MOL1         0.0794
     125    O30     25.097166   14.170229   19.628842 O.3        1 MOL1        -0.5486
     126    H60     25.606376   13.990516   18.808502 H          1 MOL1         0.3769
     127    N1      20.360983   19.671841   17.251525 N.4        1 MOL1        -0.4857
     128    H1      21.360534   19.902597   17.416982 H          1 MOL1         0.3650
     129    H2      20.029531   20.343624   16.542810 H          1 MOL1         0.3650
     130    C1      19.570932   19.831414   18.536717 C.3        1 MOL1         0.0209
     131    H3      18.616765   19.312347   18.416654 H          1 MOL1         0.0967
     132    H4      19.374277   20.897678   18.671117 H          1 MOL1         0.0967
     133    C2      20.321661   19.305443   19.770843 C.3        1 MOL1        -0.1378
     134    H5      20.708300   18.297860   19.570811 H          1 MOL1         0.0993
     135    H6      21.186499   19.956142   19.943041 H          1 MOL1         0.0993
     136    C3      19.454954   19.279895   21.046842 C.3        1 MOL1        -0.1338
     137    H7      18.548948   18.685532   20.873370 H          1 MOL1         0.0993
     138    H8      19.124646   20.297193   21.293622 H          1 MOL1         0.0993
     139    C4      20.254851   18.685479   22.227952 C.3        1 MOL1        -0.1338
     140    H9      20.484735   17.636647   22.008820 H          1 MOL1         0.0993
     141    H10     21.219024   19.204955   22.320769 H          1 MOL1         0.0993
     142    C5      19.498663   18.773349   23.570474 C.3        1 MOL1        -0.1313
     143    H11     18.603747   18.140227   23.534877 H          1 MOL1         0.0993
     144    H12     19.158479   19.804274   23.742656 H          1 MOL1         0.0993
     145    C6      20.382482   18.324166   24.752617 C.3        1 MOL1        -0.2328
     146    H13     19.839681   18.426490   25.700891 H          1 MOL1         0.1004
     147    H14     21.294125   18.933143   24.819091 H          1 MOL1         0.1004
     148    H15     20.677425   17.272450   24.648702 H          1 MOL1         0.1004
     149    C7      20.240104   18.250694   16.718762 C.3        1 MOL1        -0.0781
     150    H16     20.786812   18.176952   15.776120 H          1 MOL1         0.0978
     151    H17     20.670167   17.559831   17.445223 H          1 MOL1         0.0978
     152    H18     19.186309   18.015339   16.555337 H          1 MOL1         0.0978
@<TRIPOS>BOND
    1     1     2    1
    2     1     3    1
    3     1     4    1
    4     4     5    1
    5     4     6    1
    6     6     7    1
    7     4     8    1
    8     8     9    1
    9     8    10    1
   10    10    11    1
   11     8    12    1
   12    12    13    1
   13    12    14    1
   14    14    15    1
   15     1    16    1
   16    14    16    1
   17    14    17    1
   18    17    18    1
   19    17    19    1
   20    17    20    1
   21    20    21    1
   22    22    23    1
   23    22    24    1
   24    22    25    1
   25    25    26    1
   26    25    27    1
   27    27    28    1
   28    25    29    1
   29    29    30    1
   30    29    31    1
   31    31    32    1
   32     3    33    1
   33    29    33    1
   34    33    34    1
   35    33    35    1
   36    35    36    1
   37    22    37    1
   38    35    37    1
   39    35    38    1
   40    38    39    1
   41    38    40    1
   42    38    41    1
   43    41    42    1
   44    43    44    1
   45    43    45    1
   46    43    46    1
   47    46    47    1
   48    46    48    1
   49    48    49    1
   50    46    50    1
   51    50    51    1
   52    50    52    1
   53    52    53    1
   54    24    54    1
   55    50    54    1
   56    54    55    1
   57    54    56    1
   58    56    57    1
   59    43    58    1
   60    56    58    1
   61    56    59    1
   62    59    60    1
   63    59    61    1
   64    59    62    1
   65    62    63    1
   66    64    65    1
   67    64    66    1
   68    64    67    1
   69    67    68    1
   70    67    69    1
   71    69    70    1
   72    67    71    1
   73    71    72    1
   74    71    73    1
   75    73    74    1
   76    45    75    1
   77    71    75    1
   78    75    76    1
   79    75    77    1
   80    77    78    1
   81    64    79    1
   82    77    79    1
   83    77    80    1
   84    80    81    1
   85    80    82    1
   86    80    83    1
   87    83    84    1
   88    85    86    1
   89    85    87    1
   90    85    88    1
   91    88    89    1
   92    88    90    1
   93    90    91    1
   94    88    92    1
   95    92    93    1
   96    92    94    1
   97    94    95    1
   98    66    96    1
   99    92    96    1
  100    96    97    1
  101    96    98    1
  102    98    99    1
  103    85   100    1
  104    98   100    1
  105    98   101    1
  106   101   102    1
  107   101   103    1
  108   101   104    1
  109   104   105    1
  110   106   107    1
  111    12   108    1
  112   106   108    1
  113   106   109    1
  114   109   110    1
  115   109   111    1
  116   111   112    1
  117   109   113    1
  118   113   114    1
  119   113   115    1
  120   115   116    1
  121    87   117    1
  122   113   117    1
  123   117   118    1
  124   117   119    1
  125   119   120    1
  126   106   121    1
  127   119   121    1
  128   119   122    1
  129   122   123    1
  130   122   124    1
  131   122   125    1
  132   125   126    1
  133   127   128    1
  134   127   129    1
  135   127   130    1
  136   130   131    1
  137   130   132    1
  138   130   133    1
  139   133   134    1
  140   133   135    1
  141   133   136    1
  142   136   137    1
  143   136   138    1
  144   136   139    1
  145   139   140    1
  146   139   141    1
  147   139   142    1
  148   142   143    1
  149   142   144    1
  150   142   145    1
  151   145   146    1
  152   145   147    1
  153   145   148    1
  154   127   149    1
  155   149   150    1
  156   149   151    1
  157   149   152    1
@<TRIPOS>SUBSTRUCTURE
       1 MOL1            1 RESIDUE      1      MOL     
       2 MOL1          152 RESIDUE      1      MOL     
@<SCITEGIC>MOL_PROPERTY
feprocess Rank
SciTegic.value.IntegerValue
1

@<SCITEGIC>MOL_PROPERTY
Conf_Id
SciTegic.value.IntegerValue
581

@<SCITEGIC>MOL_PROPERTY
Probability
SciTegic.value.DoubleValue
58.01

@<SCITEGIC>MOL_PROPERTY
G
SciTegic.value.DoubleValue
604.427

@<SCITEGIC>MOL_PROPERTY
E
SciTegic.value.DoubleValue
401.695

@<SCITEGIC>MOL_PROPERTY
-TS
SciTegic.value.DoubleValue
202.732

@<SCITEGIC>MOL_PROPERTY
U+W
SciTegic.value.DoubleValue
267.559

@<SCITEGIC>MOL_PROPERTY
U
SciTegic.value.DoubleValue
345.775

@<SCITEGIC>MOL_PROPERTY
W
SciTegic.value.DoubleValue
-78.217

@<SCITEGIC>MOL_PROPERTY
W(PB)
SciTegic.value.DoubleValue
-84.268

@<SCITEGIC>MOL_PROPERTY
W(SA)
SciTegic.value.DoubleValue
6.052

@<SCITEGIC>MOL_PROPERTY
Valence
SciTegic.value.DoubleValue
148.066

@<SCITEGIC>MOL_PROPERTY
Coulomb
SciTegic.value.DoubleValue
224.458

@<SCITEGIC>MOL_PROPERTY
VdW
SciTegic.value.DoubleValue
-26.749

@<SCITEGIC>MOL_PROPERTY
VdW6
SciTegic.value.DoubleValue
-182.088

@<SCITEGIC>MOL_PROPERTY
VdW12
SciTegic.value.DoubleValue
155.339

@<SCITEGIC>MOL_PROPERTY
Bond
SciTegic.value.DoubleValue
4.631

@<SCITEGIC>MOL_PROPERTY
Angle
SciTegic.value.DoubleValue
11.528

@<SCITEGIC>MOL_PROPERTY
Pdih
SciTegic.value.DoubleValue
131.908

@<SCITEGIC>MOL_PROPERTY
Idih
SciTegic.value.DoubleValue
0.000

@<SCITEGIC>MOL_PROPERTY
Tether
SciTegic.value.DoubleValue
0.000

@<TRIPOS>MOLECULE
CD_guest-s12_fast_vm2_rndm.mol2 : feprocess host+ligand conformer 2
         152         157           2
SMALL
USER_CHARGES
 
@<TRIPOS>ATOM
       1    C1      16.509987   15.419018   21.910779 C.3        1 MOL1         0.2972
       2    H1      15.461601   15.362017   22.229059 H          1 MOL1         0.0751
       3    O1      16.815346   16.702862   21.326910 O.3        1 MOL1        -0.3740
       4    C2      17.441764   15.188027   23.126012 C.3        1 MOL1         0.1003
       5    H2      17.183773   14.206299   23.544464 H          1 MOL1         0.0783
       6    O2      17.256679   16.200816   24.133954 O.3        1 MOL1        -0.5519
       7    H3      16.336753   16.543673   24.022122 H          1 MOL1         0.3769
       8    C3      18.924499   15.155649   22.694777 C.3        1 MOL1         0.1053
       9    H4      19.205442   16.173675   22.401711 H          1 MOL1         0.0783
      10    O3      19.705659   14.731019   23.813393 O.3        1 MOL1        -0.5519
      11    H5      19.277069   15.136471   24.596880 H          1 MOL1         0.3769
      12    C4      19.186462   14.233292   21.477307 C.3        1 MOL1         0.1018
      13    H6      19.223148   13.189765   21.817057 H          1 MOL1         0.0783
      14    C5      18.113634   14.397328   20.365649 C.3        1 MOL1         0.1043
      15    H7      18.282414   15.362088   19.870693 H          1 MOL1         0.0783
      16    O4      16.783986   14.389530   20.938126 O.3        1 MOL1        -0.3740
      17    C6      18.188733   13.303818   19.273452 C.3        1 MOL1         0.0138
      18    H8      19.095153   13.471573   18.676077 H          1 MOL1         0.0794
      19    H9      17.327852   13.420872   18.601529 H          1 MOL1         0.0794
      20    O5      18.212417   11.982800   19.828953 O.3        1 MOL1        -0.5486
      21    H10     18.184219   11.345014   19.082570 H          1 MOL1         0.3769
      22    C7      14.873735   20.334196   20.695017 C.3        1 MOL1         0.2972
      23    H11     14.187347   21.137636   20.397766 H          1 MOL1         0.0751
      24    O6      16.139889   20.851270   21.148370 O.3        1 MOL1        -0.3740
      25    C8      14.265515   19.469489   21.829662 C.3        1 MOL1         0.1003
      26    H12     13.350158   19.008874   21.435720 H          1 MOL1         0.0783
      27    O7      13.931929   20.267910   22.976064 O.3        1 MOL1        -0.5519
      28    H13     14.729458   20.809001   23.206333 H          1 MOL1         0.3769
      29    C9      15.240034   18.332667   22.224736 C.3        1 MOL1         0.1053
      30    H14     16.135094   18.798034   22.654238 H          1 MOL1         0.0783
      31    O8      14.620350   17.499499   23.211291 O.3        1 MOL1        -0.5519
      32    H15     14.147897   18.123895   23.807499 H          1 MOL1         0.3769
      33    C10     15.668650   17.507065   20.977416 C.3        1 MOL1         0.1018
      34    H16     14.829223   16.880056   20.648421 H          1 MOL1         0.0783
      35    C11     16.105059   18.415673   19.795114 C.3        1 MOL1         0.1043
      36    H17     17.069209   18.872447   20.049086 H          1 MOL1         0.0783
      37    O9      15.128414   19.463043   19.574976 O.3        1 MOL1        -0.3740
      38    C12     16.292999   17.640255   18.469437 C.3        1 MOL1         0.0138
      39    H18     17.147338   16.960915   18.582439 H          1 MOL1         0.0794
      40    H19     16.545103   18.357155   17.676687 H          1 MOL1         0.0794
      41    O10     15.125223   16.891195   18.110584 O.3        1 MOL1        -0.5486
      42    H20     15.298660   16.461329   17.245415 H          1 MOL1         0.3769
      43    C13     18.375183   24.218931   21.738933 C.3        1 MOL1         0.2972
      44    H21     18.812662   25.214365   21.889033 H          1 MOL1         0.0751
      45    O11     19.384320   23.205643   21.562635 O.3        1 MOL1        -0.3740
      46    C14     17.516053   23.827432   22.963073 C.3        1 MOL1         0.1003
      47    H22     16.681106   24.537213   23.028889 H          1 MOL1         0.0783
      48    O12     18.292706   23.888722   24.170305 O.3        1 MOL1        -0.5519
      49    H23     19.244058   23.805764   23.910478 H          1 MOL1         0.3769
      50    C15     16.933307   22.410802   22.769553 C.3        1 MOL1         0.1053
      51    H24     17.771274   21.706370   22.780737 H          1 MOL1         0.0783
      52    O13     16.042963   22.106863   23.846737 O.3        1 MOL1        -0.5519
      53    H25     16.512390   22.413539   24.654948 H          1 MOL1         0.3769
      54    C16     16.202261   22.265981   21.411249 C.3        1 MOL1         0.1018
      55    H26     15.204976   22.716078   21.504712 H          1 MOL1         0.0783
      56    C17     16.974052   22.905457   20.218393 C.3        1 MOL1         0.1043
      57    H27     17.800986   22.232377   19.960113 H          1 MOL1         0.0783
      58    O14     17.522239   24.201420   20.576346 O.3        1 MOL1        -0.3740
      59    C18     16.112047   23.070867   18.944328 C.3        1 MOL1         0.0138
      60    H28     15.910178   22.074702   18.527663 H          1 MOL1         0.0794
      61    H29     16.694089   23.625731   18.196223 H          1 MOL1         0.0794
      62    O15     14.876220   23.743963   19.213790 O.3        1 MOL1        -0.5486
      63    H30     14.416707   23.878528   18.356257 H          1 MOL1         0.3769
      64    C19     23.446845   22.673394   20.881771 C.3        1 MOL1         0.2972
      65    H31     24.503821   22.800715   20.615312 H          1 MOL1         0.0751
      66    O16     23.123069   21.277716   21.078179 O.3        1 MOL1        -0.3740
      67    C20     23.087984   23.500159   22.151358 C.3        1 MOL1         0.1003
      68    H32     23.272067   24.554339   21.906346 H          1 MOL1         0.0783
      69    O17     23.894459   23.146667   23.284307 O.3        1 MOL1        -0.5519
      70    H33     23.656224   22.215640   23.523241 H          1 MOL1         0.3769
      71    C21     21.586717   23.351171   22.494253 C.3        1 MOL1         0.1053
      72    H34     21.403097   22.308286   22.784925 H          1 MOL1         0.0783
      73    O18     21.247076   24.221320   23.578583 O.3        1 MOL1        -0.5519
      74    H35     21.980227   24.123800   24.226660 H          1 MOL1         0.3769
      75    C22     20.707272   23.678141   21.263997 C.3        1 MOL1         0.1018
      76    H36     20.734623   24.761844   21.089607 H          1 MOL1         0.0783
      77    C23     21.185109   22.941263   19.984697 C.3        1 MOL1         0.1043
      78    H37     21.003475   21.871252   20.125637 H          1 MOL1         0.0783
      79    O19     22.606898   23.161379   19.809533 O.3        1 MOL1        -0.3740
      80    C24     20.439923   23.347961   18.686157 C.3        1 MOL1         0.0138
      81    H38     19.572229   22.687643   18.562866 H          1 MOL1         0.0794
      82    H39     21.102742   23.164018   17.830061 H          1 MOL1         0.0794
      83    O20     20.000802   24.711492   18.684909 O.3        1 MOL1        -0.5486
      84    H40     19.201981   24.758711   19.259201 H          1 MOL1         0.3769
      85    C25     24.771297   17.584225   22.056123 C.3        1 MOL1         0.2972
      86    H41     25.418050   16.766420   22.399120 H          1 MOL1         0.0751
      87    O21     23.623756   17.087998   21.339404 O.3        1 MOL1        -0.3740
      88    C26     24.290396   18.431407   23.262476 C.3        1 MOL1         0.1003
      89    H42     25.186412   18.832886   23.753607 H          1 MOL1         0.0783
      90    O22     23.545221   17.646372   24.207398 O.3        1 MOL1        -0.5519
      91    H43     23.746192   16.697180   24.023469 H          1 MOL1         0.3769
      92    C27     23.426143   19.618621   22.786939 C.3        1 MOL1         0.1053
      93    H44     22.507050   19.204911   22.356348 H          1 MOL1         0.0783
      94    O23     23.111312   20.438526   23.916303 O.3        1 MOL1        -0.5519
      95    H45     22.935441   19.796593   24.641036 H          1 MOL1         0.3769
      96    C28     24.134829   20.446113   21.686960 C.3        1 MOL1         0.1018
      97    H46     24.934934   21.038283   22.149797 H          1 MOL1         0.0783
      98    C29     24.733407   19.540748   20.573711 C.3        1 MOL1         0.1043
      99    H47     23.902506   19.119308   19.992903 H          1 MOL1         0.0783
     100    O24     25.497991   18.458549   21.166011 O.3        1 MOL1        -0.3740
     101    C30     25.647296   20.300430   19.582506 C.3        1 MOL1         0.0138
     102    H48     25.018639   20.945241   18.953640 H          1 MOL1         0.0794
     103    H49     26.129398   19.569027   18.920074 H          1 MOL1         0.0794
     104    O25     26.635329   21.092110   20.254002 O.3        1 MOL1        -0.5486
     105    H50     27.228442   21.472254   19.569670 H          1 MOL1         0.3769
     106    C31     21.462994   13.669733   20.683975 C.3        1 MOL1         0.2972
     107    H51     21.032947   12.694405   20.422068 H          1 MOL1         0.0751
     108    O26     20.435515   14.664304   20.899262 O.3        1 MOL1        -0.3740
     109    C32     22.392045   13.568641   21.922711 C.3        1 MOL1         0.1003
     110    H52     23.254147   12.957532   21.624541 H          1 MOL1         0.0783
     111    O27     21.752970   12.932564   23.037445 O.3        1 MOL1        -0.5519
     112    H53     21.012439   13.525499   23.318971 H          1 MOL1         0.3769
     113    C33     22.921537   14.972220   22.306284 C.3        1 MOL1         0.1053
     114    H54     22.068138   15.585762   22.626004 H          1 MOL1         0.0783
     115    O28     23.854549   14.843949   23.384732 O.3        1 MOL1        -0.5519
     116    H55     23.468109   14.157406   23.974668 H          1 MOL1         0.3769
     117    C34     23.592539   15.668767   21.088955 C.3        1 MOL1         0.1018
     118    H56     24.602222   15.260422   20.955851 H          1 MOL1         0.0783
     119    C35     22.797160   15.499202   19.763646 C.3        1 MOL1         0.1043
     120    H57     21.939220   16.178959   19.807475 H          1 MOL1         0.0783
     121    O29     22.303048   14.144897   19.612127 O.3        1 MOL1        -0.3740
     122    C36     23.612071   15.878153   18.502060 C.3        1 MOL1         0.0138
     123    H58     23.772067   16.964815   18.500913 H          1 MOL1         0.0794
     124    H59     23.010297   15.637523   17.615658 H          1 MOL1         0.0794
     125    O30     24.874126   15.203303   18.432904 O.3        1 MOL1        -0.5486
     126    H60     25.482380   15.642222   19.065240 H          1 MOL1         0.3769
     127    N1      19.661040   17.765164   25.061771 N.4        1 MOL1        -0.4857
     128    H1      18.849754   17.153752   24.844151 H          1 MOL1         0.3650
     129    H2      19.281894   18.519434   25.652768 H          1 MOL1         0.3650
     130    C1      20.221849   18.340715   23.779206 C.3        1 MOL1         0.0209
     131    H3      20.626566   17.516723   23.186453 H          1 MOL1         0.0967
     132    H4      21.041767   19.012770   24.041282 H          1 MOL1         0.0967
     133    C2      19.154086   19.101851   22.978457 C.3        1 MOL1        -0.1378
     134    H5      18.307057   18.436382   22.779141 H          1 MOL1         0.0993
     135    H6      18.771233   19.918018   23.603269 H          1 MOL1         0.0993
     136    C3      19.672439   19.681365   21.644519 C.3        1 MOL1        -0.1338
     137    H7      20.549155   20.314398   21.830620 H          1 MOL1         0.0993
     138    H8      18.896713   20.342861   21.237519 H          1 MOL1         0.0993
     139    C4      20.007832   18.596970   20.591985 C.3        1 MOL1        -0.1338
     140    H9      20.870905   18.002317   20.920540 H          1 MOL1         0.0993
     141    H10     19.163317   17.900884   20.504011 H          1 MOL1         0.0993
     142    C5      20.298062   19.231235   19.211566 C.3        1 MOL1        -0.1313
     143    H11     21.241380   19.793167   19.255053 H          1 MOL1         0.0993
     144    H12     19.507293   19.953164   18.964661 H          1 MOL1         0.0993
     145    C6      20.376769   18.186963   18.079038 C.3        1 MOL1        -0.2328
     146    H13     21.225926   17.512188   18.219168 H          1 MOL1         0.1004
     147    H14     20.505379   18.681883   17.107690 H          1 MOL1         0.1004
     148    H15     19.462824   17.582314   18.029285 H          1 MOL1         0.1004
     149    C7      20.754152   17.008444   25.803108 C.3        1 MOL1        -0.0781
     150    H16     21.561690   17.700691   26.051850 H          1 MOL1         0.0978
     151    H17     20.339006   16.577953   26.716726 H          1 MOL1         0.0978
     152    H18     21.143408   16.215865   25.160107 H          1 MOL1         0.0978
@<TRIPOS>BOND
    1     1     2    1
    2     1     3    1
    3     1     4    1
    4     4     5    1
    5     4     6    1
    6     6     7    1
    7     4     8    1
    8     8     9    1
    9     8    10    1
   10    10    11    1
   11     8    12    1
   12    12    13    1
   13    12    14    1
   14    14    15    1
   15     1    16    1
   16    14    16    1
   17    14    17    1
   18    17    18    1
   19    17    19    1
   20    17    20    1
   21    20    21    1
   22    22    23    1
   23    22    24    1
   24    22    25    1
   25    25    26    1
   26    25    27    1
   27    27    28    1
   28    25    29    1
   29    29    30    1
   30    29    31    1
   31    31    32    1
   32     3    33    1
   33    29    33    1
   34    33    34    1
   35    33    35    1
   36    35    36    1
   37    22    37    1
   38    35    37    1
   39    35    38    1
   40    38    39    1
   41    38    40    1
   42    38    41    1
   43    41    42    1
   44    43    44    1
   45    43    45    1
   46    43    46    1
   47    46    47    1
   48    46    48    1
   49    48    49    1
   50    46    50    1
   51    50    51    1
   52    50    52    1
   53    52    53    1
   54    24    54    1
   55    50    54    1
   56    54    55    1
   57    54    56    1
   58    56    57    1
   59    43    58    1
   60    56    58    1
   61    56    59    1
   62    59    60    1
   63    59    61    1
   64    59    62    1
   65    62    63    1
   66    64    65    1
   67    64    66    1
   68    64    67    1
   69    67    68    1
   70    67    69    1
   71    69    70    1
   72    67    71    1
   73    71    72    1
   74    71    73    1
   75    73    74    1
   76    45    75    1
   77    71    75    1
   78    75    76    1
   79    75    77    1
   80    77    78    1
   81    64    79    1
   82    77    79    1
   83    77    80    1
   84    80    81    1
   85    80    82    1
   86    80    83    1
   87    83    84    1
   88    85    86    1
   89    85    87    1
   90    85    88    1
   91    88    89    1
   92    88    90    1
   93    90    91    1
   94    88    92    1
   95    92    93    1
   96    92    94    1
   97    94    95    1
   98    66    96    1
   99    92    96    1
  100    96    97    1
  101    96    98    1
  102    98    99    1
  103    85   100    1
  104    98   100    1
  105    98   101    1
  106   101   102    1
  107   101   103    1
  108   101   104    1
  109   104   105    1
  110   106   107    1
  111    12   108    1
  112   106   108    1
  113   106   109    1
  114   109   110    1
  115   109   111    1
  116   111   112    1
  117   109   113    1
  118   113   114    1
  119   113   115    1
  120   115   116    1
  121    87   117    1
  122   113   117    1
  123   117   118    1
  124   117   119    1
  125   119   120    1
  126   106   121    1
  127   119   121    1
  128   119   122    1
  129   122   123    1
  130   122   124    1
  131   122   125    1
  132   125   126    1
  133   127   128    1
  134   127   129    1
  135   127   130    1
  136   130   131    1
  137   130   132    1
  138   130   133    1
  139   133   134    1
  140   133   135    1
  141   133   136    1
  142   136   137    1
  143   136   138    1
  144   136   139    1
  145   139   140    1
  146   139   141    1
  147   139   142    1
  148   142   143    1
  149   142   144    1
  150   142   145    1
  151   145   146    1
  152   145   147    1
  153   145   148    1
  154   127   149    1
  155   149   150    1
  156   149   151    1
  157   149   152    1
@<TRIPOS>SUBSTRUCTURE
       1 MOL1            1 RESIDUE      1      MOL     
       2 MOL1          152 RESIDUE      1      MOL     
@<SCITEGIC>MOL_PROPERTY
feprocess Rank
SciTegic.value.IntegerValue
2

@<SCITEGIC>MOL_PROPERTY
Conf_Id
SciTegic.value.IntegerValue
827

@<SCITEGIC>MOL_PROPERTY
Probability
SciTegic.value.DoubleValue
18.70

@<SCITEGIC>MOL_PROPERTY
G
SciTegic.value.DoubleValue
605.102

@<SCITEGIC>MOL_PROPERTY
E
SciTegic.value.DoubleValue
400.765

@<SCITEGIC>MOL_PROPERTY
-TS
SciTegic.value.DoubleValue
204.337

@<SCITEGIC>MOL_PROPERTY
U+W
SciTegic.value.DoubleValue
266.628

@<SCITEGIC>MOL_PROPERTY
U
SciTegic.value.DoubleValue
347.487

@<SCITEGIC>MOL_PROPERTY
W
SciTegic.value.DoubleValue
-80.868

@<SCITEGIC>MOL_PROPERTY
W(PB)
SciTegic.value.DoubleValue
-86.979

@<SCITEGIC>MOL_PROPERTY
W(SA)
SciTegic.value.DoubleValue
6.111

@<SCITEGIC>MOL_PROPERTY
Valence
SciTegic.value.DoubleValue
147.144

@<SCITEGIC>MOL_PROPERTY
Coulomb
SciTegic.value.DoubleValue
228.579

@<SCITEGIC>MOL_PROPERTY
VdW
SciTegic.value.DoubleValue
-28.235

@<SCITEGIC>MOL_PROPERTY
VdW6
SciTegic.value.DoubleValue
-186.512

@<SCITEGIC>MOL_PROPERTY
VdW12
SciTegic.value.DoubleValue
158.277

@<SCITEGIC>MOL_PROPERTY
Bond
SciTegic.value.DoubleValue
4.716

@<SCITEGIC>MOL_PROPERTY
Angle
SciTegic.value.DoubleValue
12.409

@<SCITEGIC>MOL_PROPERTY
Pdih
SciTegic.value.DoubleValue
130.019

@<SCITEGIC>MOL_PROPERTY
Idih
SciTegic.value.DoubleValue
0.000

@<SCITEGIC>MOL_PROPERTY
Tether
SciTegic.value.DoubleValue
0.000

@<TRIPOS>MOLECULE
CD_guest-s12_fast_vm2_rndm.mol2 : feprocess host+ligand conformer 3
         152         157           2
SMALL
USER_CHARGES
 
@<TRIPOS>ATOM
       1    C1      16.130494   15.124578   21.625021 C.3        1 MOL1         0.2972
       2    H1      15.058346   14.949367   21.781084 H          1 MOL1         0.0751
       3    O1      16.405235   16.496139   21.266972 O.3        1 MOL1        -0.3740
       4    C2      16.924411   14.772591   22.908582 C.3        1 MOL1         0.1003
       5    H2      16.783353   13.700476   23.098386 H          1 MOL1         0.0783
       6    O2      16.456257   15.515343   24.045137 O.3        1 MOL1        -0.5519
       7    H3      15.901073   16.260085   23.704226 H          1 MOL1         0.3769
       8    C3      18.432743   15.023649   22.693872 C.3        1 MOL1         0.1053
       9    H4      18.569598   16.102964   22.564738 H          1 MOL1         0.0783
      10    O3      19.152689   14.585304   23.848598 O.3        1 MOL1        -0.5519
      11    H5      18.602615   14.885152   24.607280 H          1 MOL1         0.3769
      12    C4      18.957612   14.301508   21.426526 C.3        1 MOL1         0.1018
      13    H6      19.069546   13.233398   21.656068 H          1 MOL1         0.0783
      14    C5      18.020908   14.489273   20.197161 C.3        1 MOL1         0.1043
      15    H7      18.137951   15.519242   19.837045 H          1 MOL1         0.0783
      16    O4      16.635189   14.278078   20.570747 O.3        1 MOL1        -0.3740
      17    C6      18.356817   13.552355   19.012255 C.3        1 MOL1         0.0138
      18    H8      19.297514   13.889917   18.556525 H          1 MOL1         0.0794
      19    H9      17.571027   13.654601   18.251794 H          1 MOL1         0.0794
      20    O5      18.479047   12.184448   19.421506 O.3        1 MOL1        -0.5486
      21    H10     18.605248   11.641326   18.612974 H          1 MOL1         0.3769
      22    C7      14.738662   20.213392   20.606389 C.3        1 MOL1         0.2972
      23    H11     14.116699   21.080578   20.350028 H          1 MOL1         0.0751
      24    O6      16.116585   20.600720   20.808040 O.3        1 MOL1        -0.3740
      25    C8      14.185611   19.479913   21.859368 C.3        1 MOL1         0.1003
      26    H12     13.189545   19.102464   21.593292 H          1 MOL1         0.0783
      27    O7      14.056497   20.351486   22.991888 O.3        1 MOL1        -0.5519
      28    H13     14.974781   20.613806   23.253277 H          1 MOL1         0.3769
      29    C9      15.073072   18.262402   22.210010 C.3        1 MOL1         0.1053
      30    H14     16.061842   18.635311   22.510240 H          1 MOL1         0.0783
      31    O8      14.479137   17.540093   23.292401 O.3        1 MOL1        -0.5519
      32    H15     14.162490   18.230293   23.917970 H          1 MOL1         0.3769
      33    C10     15.259623   17.327358   20.987993 C.3        1 MOL1         0.1018
      34    H16     14.346182   16.735687   20.842815 H          1 MOL1         0.0783
      35    C11     15.574257   18.099778   19.676795 C.3        1 MOL1         0.1043
      36    H17     16.612702   18.439981   19.728140 H          1 MOL1         0.0783
      37    O9      14.708689   19.254536   19.528625 O.3        1 MOL1        -0.3740
      38    C12     15.443430   17.219429   18.411477 C.3        1 MOL1         0.0138
      39    H18     16.223106   16.446679   18.443640 H          1 MOL1         0.0794
      40    H19     15.634738   17.843537   17.528355 H          1 MOL1         0.0794
      41    O10     14.153750   16.601779   18.315379 O.3        1 MOL1        -0.5486
      42    H20     14.131961   16.083671   17.481596 H          1 MOL1         0.3769
      43    C13     18.582794   23.791927   21.860859 C.3        1 MOL1         0.2972
      44    H21     18.974108   24.753235   22.216986 H          1 MOL1         0.0751
      45    O11     19.601137   23.030778   21.175873 O.3        1 MOL1        -0.3740
      46    C14     18.023086   22.964392   23.049614 C.3        1 MOL1         0.1003
      47    H22     17.240373   23.572244   23.522067 H          1 MOL1         0.0783
      48    O12     19.034669   22.659945   24.023660 O.3        1 MOL1        -0.5519
      49    H23     19.719142   23.368449   23.961183 H          1 MOL1         0.3769
      50    C15     17.379631   21.649682   22.559356 C.3        1 MOL1         0.1053
      51    H24     18.176811   21.022023   22.151186 H          1 MOL1         0.0783
      52    O13     16.770136   20.996706   23.676376 O.3        1 MOL1        -0.5519
      53    H25     17.422454   21.105028   24.405206 H          1 MOL1         0.3769
      54    C16     16.353750   21.885483   21.426211 C.3        1 MOL1         0.1018
      55    H26     15.439439   22.313854   21.857396 H          1 MOL1         0.0783
      56    C17     16.914045   22.836101   20.330777 C.3        1 MOL1         0.1043
      57    H27     17.695763   22.300711   19.778495 H          1 MOL1         0.0783
      58    O14     17.495606   24.018156   20.937448 O.3        1 MOL1        -0.3740
      59    C18     15.848757   23.284505   19.301950 C.3        1 MOL1         0.0138
      60    H28     16.292315   24.047384   18.648156 H          1 MOL1         0.0794
      61    H29     15.590779   22.423347   18.670729 H          1 MOL1         0.0794
      62    O15     14.667344   23.794183   19.933143 O.3        1 MOL1        -0.5486
      63    H30     14.074084   24.131965   19.227043 H          1 MOL1         0.3769
      64    C19     23.736332   22.826255   21.016170 C.3        1 MOL1         0.2972
      65    H31     24.813752   22.967116   20.860200 H          1 MOL1         0.0751
      66    O16     23.413554   21.454034   21.325874 O.3        1 MOL1        -0.3740
      67    C20     23.209218   23.732777   22.155404 C.3        1 MOL1         0.1003
      68    H32     23.347479   24.772258   21.830012 H          1 MOL1         0.0783
      69    O17     23.934944   23.532942   23.377393 O.3        1 MOL1        -0.5519
      70    H33     23.898885   22.566093   23.590871 H          1 MOL1         0.3769
      71    C21     21.693118   23.502863   22.372805 C.3        1 MOL1         0.1053
      72    H34     21.552142   22.478127   22.742881 H          1 MOL1         0.0783
      73    O18     21.232946   24.441961   23.351184 O.3        1 MOL1        -0.5519
      74    H35     21.962252   24.495144   24.010945 H          1 MOL1         0.3769
      75    C22     20.898999   23.655343   21.041622 C.3        1 MOL1         0.1018
      76    H36     20.799493   24.723417   20.810944 H          1 MOL1         0.0783
      77    C23     21.589072   22.941722   19.842427 C.3        1 MOL1         0.1043
      78    H37     21.437539   21.861750   19.953915 H          1 MOL1         0.0783
      79    O19     23.013041   23.204666   19.827501 O.3        1 MOL1        -0.3740
      80    C24     21.001509   23.345902   18.467086 C.3        1 MOL1         0.0138
      81    H38     19.977517   22.957203   18.391410 H          1 MOL1         0.0794
      82    H39     21.592998   22.858886   17.680501 H          1 MOL1         0.0794
      83    O20     20.992470   24.764462   18.265005 O.3        1 MOL1        -0.5486
      84    H40     20.268360   25.139201   18.810414 H          1 MOL1         0.3769
      85    C25     24.928886   17.714003   22.099740 C.3        1 MOL1         0.2972
      86    H41     25.526685   16.822116   22.328821 H          1 MOL1         0.0751
      87    O21     23.590777   17.367076   21.695640 O.3        1 MOL1        -0.3740
      88    C26     24.836911   18.619448   23.349071 C.3        1 MOL1         0.1003
      89    H42     25.857597   18.926614   23.611817 H          1 MOL1         0.0783
      90    O22     24.250766   17.906676   24.451203 O.3        1 MOL1        -0.5519
      91    H43     24.101353   16.978210   24.147698 H          1 MOL1         0.3769
      92    C27     24.009877   19.885990   23.038921 C.3        1 MOL1         0.1053
      93    H44     22.979103   19.569151   22.863442 H          1 MOL1         0.0783
      94    O23     24.050121   20.759489   24.169149 O.3        1 MOL1        -0.5519
      95    H45     23.953648   20.162799   24.945285 H          1 MOL1         0.3769
      96    C28     24.501231   20.612433   21.761427 C.3        1 MOL1         0.1018
      97    H46     25.401836   21.189642   22.009660 H          1 MOL1         0.0783
      98    C29     24.792081   19.636726   20.584166 C.3        1 MOL1         0.1043
      99    H47     23.826289   19.305319   20.183551 H          1 MOL1         0.0783
     100    O24     25.534823   18.474029   21.033806 O.3        1 MOL1        -0.3740
     101    C30     25.565867   20.295499   19.417533 C.3        1 MOL1         0.0138
     102    H48     24.898971   21.010784   18.917099 H          1 MOL1         0.0794
     103    H49     25.822637   19.519850   18.683508 H          1 MOL1         0.0794
     104    O25     26.748457   20.968023   19.867459 O.3        1 MOL1        -0.5486
     105    H50     27.223519   21.298663   19.073970 H          1 MOL1         0.3769
     106    C31     21.302819   14.036774   20.730349 C.3        1 MOL1         0.2972
     107    H51     20.932685   13.071061   20.362722 H          1 MOL1         0.0751
     108    O26     20.218327   14.917273   21.096055 O.3        1 MOL1        -0.3740
     109    C32     22.236182   13.850404   21.959068 C.3        1 MOL1         0.1003
     110    H52     23.092472   13.247397   21.630068 H          1 MOL1         0.0783
     111    O27     21.571766   13.170609   23.035040 O.3        1 MOL1        -0.5519
     112    H53     20.766359   13.699001   23.266229 H          1 MOL1         0.3769
     113    C33     22.771761   15.220580   22.439464 C.3        1 MOL1         0.1053
     114    H54     21.915683   15.793810   22.809448 H          1 MOL1         0.0783
     115    O28     23.720377   15.037357   23.496064 O.3        1 MOL1        -0.5519
     116    H55     23.345700   14.318391   24.052903 H          1 MOL1         0.3769
     117    C34     23.414249   16.006001   21.268832 C.3        1 MOL1         0.1018
     118    H56     24.367837   15.529328   21.005997 H          1 MOL1         0.0783
     119    C35     22.505148   16.043304   20.013418 C.3        1 MOL1         0.1043
     120    H57     21.628600   16.657403   20.247454 H          1 MOL1         0.0783
     121    O29     22.072079   14.697450   19.698914 O.3        1 MOL1        -0.3740
     122    C36     23.171112   16.674180   18.762000 C.3        1 MOL1         0.0138
     123    H58     22.982413   17.754892   18.777455 H          1 MOL1         0.0794
     124    H59     22.677327   16.278303   17.864524 H          1 MOL1         0.0794
     125    O30     24.583509   16.441737   18.691200 O.3        1 MOL1        -0.5486
     126    H60     25.005264   16.978764   19.400593 H          1 MOL1         0.3769
     127    N1      20.778583   17.917706   25.182324 N.4        1 MOL1        -0.4857
     128    H1      19.817812   18.050525   25.531923 H          1 MOL1         0.3650
     129    H2      21.336675   18.685539   25.585297 H          1 MOL1         0.3650
     130    C1      20.803045   17.999890   23.671347 C.3        1 MOL1         0.0209
     131    H3      20.211570   17.168458   23.281812 H          1 MOL1         0.0967
     132    H4      21.839272   17.864623   23.351716 H          1 MOL1         0.0967
     133    C2      20.263867   19.332099   23.122001 C.3        1 MOL1        -0.1378
     134    H5      19.219058   19.456921   23.432779 H          1 MOL1         0.0993
     135    H6      20.822468   20.163127   23.573648 H          1 MOL1         0.0993
     136    C3      20.375956   19.428648   21.581297 C.3        1 MOL1        -0.1338
     137    H7      21.405592   19.214002   21.266216 H          1 MOL1         0.0993
     138    H8      20.175836   20.464160   21.287534 H          1 MOL1         0.0993
     139    C4      19.395285   18.483140   20.847674 C.3        1 MOL1        -0.1338
     140    H9      19.593743   17.453195   21.159681 H          1 MOL1         0.0993
     141    H10     18.365235   18.705773   21.156835 H          1 MOL1         0.0993
     142    C5      19.508980   18.546173   19.305258 C.3        1 MOL1        -0.1313
     143    H11     18.920276   17.725914   18.872186 H          1 MOL1         0.0993
     144    H12     20.548988   18.369603   19.002132 H          1 MOL1         0.0993
     145    C6      19.020335   19.881347   18.702407 C.3        1 MOL1        -0.2328
     146    H13     17.968278   20.067569   18.946850 H          1 MOL1         0.1004
     147    H14     19.110240   19.865869   17.608653 H          1 MOL1         0.1004
     148    H15     19.608456   20.726306   19.072511 H          1 MOL1         0.1004
     149    C7      21.332404   16.574804   25.636148 C.3        1 MOL1        -0.0781
     150    H16     22.365799   16.480698   25.296557 H          1 MOL1         0.0978
     151    H17     21.297135   16.522862   26.726334 H          1 MOL1         0.0978
     152    H18     20.729531   15.772133   25.207928 H          1 MOL1         0.0978
@<TRIPOS>BOND
    1     1     2    1
    2     1     3    1
    3     1     4    1
    4     4     5    1
    5     4     6    1
    6     6     7    1
    7     4     8    1
    8     8     9    1
    9     8    10    1
   10    10    11    1
   11     8    12    1
   12    12    13    1
   13    12    14    1
   14    14    15    1
   15     1    16    1
   16    14    16    1
   17    14    17    1
   18    17    18    1
   19    17    19    1
   20    17    20    1
   21    20    21    1
   22    22    23    1
   23    22    24    1
   24    22    25    1
   25    25    26    1
   26    25    27    1
   27    27    28    1
   28    25    29    1
   29    29    30    1
   30    29    31    1
   31    31    32    1
   32     3    33    1
   33    29    33    1
   34    33    34    1
   35    33    35    1
   36    35    36    1
   37    22    37    1
   38    35    37    1
   39    35    38    1
   40    38    39    1
   41    38    40    1
   42    38    41    1
   43    41    42    1
   44    43    44    1
   45    43    45    1
   46    43    46    1
   47    46    47    1
   48    46    48    1
   49    48    49    1
   50    46    50    1
   51    50    51    1
   52    50    52    1
   53    52    53    1
   54    24    54    1
   55    50    54    1
   56    54    55    1
   57    54    56    1
   58    56    57    1
   59    43    58    1
   60    56    58    1
   61    56    59    1
   62    59    60    1
   63    59    61    1
   64    59    62    1
   65    62    63    1
   66    64    65    1
   67    64    66    1
   68    64    67    1
   69    67    68    1
   70    67    69    1
   71    69    70    1
   72    67    71    1
   73    71    72    1
   74    71    73    1
   75    73    74    1
   76    45    75    1
   77    71    75    1
   78    75    76    1
   79    75    77    1
   80    77    78    1
   81    64    79    1
   82    77    79    1
   83    77    80    1
   84    80    81    1
   85    80    82    1
   86    80    83    1
   87    83    84    1
   88    85    86    1
   89    85    87    1
   90    85    88    1
   91    88    89    1
   92    88    90    1
   93    90    91    1
   94    88    92    1
   95    92    93    1
   96    92    94    1
   97    94    95    1
   98    66    96    1
   99    92    96    1
  100    96    97    1
  101    96    98    1
  102    98    99    1
  103    85   100    1
  104    98   100    1
  105    98   101    1
  106   101   102    1
  107   101   103    1
  108   101   104    1
  109   104   105    1
  110   106   107    1
  111    12   108    1
  112   106   108    1
  113   106   109    1
  114   109   110    1
  115   109   111    1
  116   111   112    1
  117   109   113    1
  118   113   114    1
  119   113   115    1
  120   115   116    1
  121    87   117    1
  122   113   117    1
  123   117   118    1
  124   117   119    1
  125   119   120    1
  126   106   121    1
  127   119   121    1
  128   119   122    1
  129   122   123    1
  130   122   124    1
  131   122   125    1
  132   125   126    1
  133   127   128    1
  134   127   129    1
  135   127   130    1
  136   130   131    1
  137   130   132    1
  138   130   133    1
  139   133   134    1
  140   133   135    1
  141   133   136    1
  142   136   137    1
  143   136   138    1
  144   136   139    1
  145   139   140    1
  146   139   141    1
  147   139   142    1
  148   142   143    1
  149   142   144    1
  150   142   145    1
  151   145   146    1
  152   145   147    1
  153   145   148    1
  154   127   149    1
  155   149   150    1
  156   149   151    1
  157   149   152    1
@<TRIPOS>SUBSTRUCTURE
       1 MOL1            1 RESIDUE      1      MOL     
       2 MOL1          152 RESIDUE      1      MOL     
@<SCITEGIC>MOL_PROPERTY
feprocess Rank
SciTegic.value.IntegerValue
3

@<SCITEGIC>MOL_PROPERTY
Conf_Id
SciTegic.value.IntegerValue
787

@<SCITEGIC>MOL_PROPERTY
Probability
SciTegic.value.DoubleValue
5.19

@<SCITEGIC>MOL_PROPERTY
G
SciTegic.value.DoubleValue
605.866

@<SCITEGIC>MOL_PROPERTY
E
SciTegic.value.DoubleValue
400.974

@<SCITEGIC>MOL_PROPERTY
-TS
SciTegic.value.DoubleValue
204.892

@<SCITEGIC>MOL_PROPERTY
U+W
SciTegic.value.DoubleValue
266.838

@<SCITEGIC>MOL_PROPERTY
U
SciTegic.value.DoubleValue
349.021

@<SCITEGIC>MOL_PROPERTY
W
SciTegic.value.DoubleValue
-82.183

@<SCITEGIC>MOL_PROPERTY
W(PB)
SciTegic.value.DoubleValue
-88.263

@<SCITEGIC>MOL_PROPERTY
W(SA)
SciTegic.value.DoubleValue
6.080

@<SCITEGIC>MOL_PROPERTY
Valence
SciTegic.value.DoubleValue
147.561

@<SCITEGIC>MOL_PROPERTY
Coulomb
SciTegic.value.DoubleValue
230.404

@<SCITEGIC>MOL_PROPERTY
VdW
SciTegic.value.DoubleValue
-28.944

@<SCITEGIC>MOL_PROPERTY
VdW6
SciTegic.value.DoubleValue
-187.554

@<SCITEGIC>MOL_PROPERTY
VdW12
SciTegic.value.DoubleValue
158.610

@<SCITEGIC>MOL_PROPERTY
Bond
SciTegic.value.DoubleValue
4.815

@<SCITEGIC>MOL_PROPERTY
Angle
SciTegic.value.DoubleValue
12.107

@<SCITEGIC>MOL_PROPERTY
Pdih
SciTegic.value.DoubleValue
130.639

@<SCITEGIC>MOL_PROPERTY
Idih
SciTegic.value.DoubleValue
0.000

@<SCITEGIC>MOL_PROPERTY
Tether
SciTegic.value.DoubleValue
0.000

@<TRIPOS>MOLECULE
CD_guest-s12_fast_vm2_rndm.mol2 : feprocess host+ligand conformer 4
         152         157           2
SMALL
USER_CHARGES
 
@<TRIPOS>ATOM
       1    C1      16.420133   15.264887   20.592409 C.3        1 MOL1         0.2972
       2    H1      15.382894   15.163296   20.248660 H          1 MOL1         0.0751
       3    O1      16.759818   16.649440   20.833171 O.3        1 MOL1        -0.3740
       4    C2      16.668623   14.422446   21.876426 C.3        1 MOL1         0.1003
       5    H2      16.489369   13.372514   21.610569 H          1 MOL1         0.0783
       6    O2      15.782647   14.783503   22.945855 O.3        1 MOL1        -0.5519
       7    H3      16.000881   15.716934   23.194795 H          1 MOL1         0.3769
       8    C3      18.141999   14.551741   22.329892 C.3        1 MOL1         0.1053
       9    H4      18.315622   15.592678   22.633862 H          1 MOL1         0.0783
      10    O3      18.392647   13.679550   23.436628 O.3        1 MOL1        -0.5519
      11    H5      17.613229   13.782091   24.027289 H          1 MOL1         0.3769
      12    C4      19.106369   14.216007   21.166987 C.3        1 MOL1         0.1018
      13    H6      19.089635   13.131943   20.993619 H          1 MOL1         0.0783
      14    C5      18.733796   14.956913   19.855413 C.3        1 MOL1         0.1043
      15    H7      18.929884   16.021438   20.012437 H          1 MOL1         0.0783
      16    O4      17.324221   14.768412   19.578843 O.3        1 MOL1        -0.3740
      17    C6      19.557381   14.535710   18.609727 C.3        1 MOL1         0.0138
      18    H8      20.428637   15.197638   18.529002 H          1 MOL1         0.0794
      19    H9      18.947017   14.706172   17.712780 H          1 MOL1         0.0794
      20    O5      19.998701   13.173584   18.652053 O.3        1 MOL1        -0.5486
      21    H10     20.754921   13.133767   19.282052 H          1 MOL1         0.3769
      22    C7      15.018549   20.366928   21.635824 C.3        1 MOL1         0.2972
      23    H11     14.310372   21.158949   21.911703 H          1 MOL1         0.0751
      24    O6      16.224198   20.914407   21.069393 O.3        1 MOL1        -0.3740
      25    C8      15.368601   19.503694   22.878843 C.3        1 MOL1         0.1003
      26    H12     14.425009   19.093193   23.261440 H          1 MOL1         0.0783
      27    O7      15.998793   20.278185   23.912155 O.3        1 MOL1        -0.5519
      28    H13     15.782285   21.226657   23.742857 H          1 MOL1         0.3769
      29    C9      16.286342   18.323045   22.495922 C.3        1 MOL1         0.1053
      30    H14     17.244646   18.744730   22.175434 H          1 MOL1         0.0783
      31    O8      16.480529   17.493820   23.645231 O.3        1 MOL1        -0.5519
      32    H15     16.649929   18.130218   24.376265 H          1 MOL1         0.3769
      33    C10     15.703539   17.505125   21.318541 C.3        1 MOL1         0.1018
      34    H16     14.837337   16.932354   21.675486 H          1 MOL1         0.0783
      35    C11     15.277723   18.427111   20.144717 C.3        1 MOL1         0.1043
      36    H17     16.190487   18.847427   19.703958 H          1 MOL1         0.0783
      37    O9      14.436941   19.505124   20.633686 O.3        1 MOL1        -0.3740
      38    C12     14.519488   17.689009   19.015924 C.3        1 MOL1         0.0138
      39    H18     15.231028   17.045897   18.480645 H          1 MOL1         0.0794
      40    H19     14.149291   18.433209   18.297842 H          1 MOL1         0.0794
      41    O10     13.435815   16.898979   19.521017 O.3        1 MOL1        -0.5486
      42    H20     12.946750   16.536223   18.750600 H          1 MOL1         0.3769
      43    C13     18.398617   24.360426   20.813231 C.3        1 MOL1         0.2972
      44    H21     18.860307   25.342990   20.650703 H          1 MOL1         0.0751
      45    O11     19.384970   23.342258   21.086677 O.3        1 MOL1        -0.3740
      46    C14     17.358660   24.402576   21.960772 C.3        1 MOL1         0.1003
      47    H22     16.540173   25.054801   21.628956 H          1 MOL1         0.0783
      48    O12     17.909811   24.939461   23.171320 O.3        1 MOL1        -0.5519
      49    H23     18.640370   24.332632   23.452204 H          1 MOL1         0.3769
      50    C15     16.772436   22.990222   22.200597 C.3        1 MOL1         0.1053
      51    H24     17.575470   22.353824   22.598505 H          1 MOL1         0.0783
      52    O13     15.711751   23.085112   23.157630 O.3        1 MOL1        -0.5519
      53    H25     16.032696   23.728358   23.830156 H          1 MOL1         0.3769
      54    C16     16.252812   22.346361   20.882408 C.3        1 MOL1         0.1018
      55    H26     15.253887   22.741492   20.653774 H          1 MOL1         0.0783
      56    C17     17.171267   22.596475   19.650375 C.3        1 MOL1         0.1043
      57    H27     18.021502   21.907677   19.702587 H          1 MOL1         0.0783
      58    O14     17.665826   23.956408   19.639696 O.3        1 MOL1        -0.3740
      59    C18     16.438707   22.359755   18.310339 C.3        1 MOL1         0.0138
      60    H28     17.106847   22.643002   17.486346 H          1 MOL1         0.0794
      61    H29     15.558385   23.014363   18.261038 H          1 MOL1         0.0794
      62    O15     16.048509   20.990798   18.167902 O.3        1 MOL1        -0.5486
      63    H30     15.584811   20.735487   18.998717 H          1 MOL1         0.3769
      64    C19     23.273533   22.569839   22.174429 C.3        1 MOL1         0.2972
      65    H31     24.318927   22.598191   22.507254 H          1 MOL1         0.0751
      66    O16     22.931150   21.292405   21.600422 O.3        1 MOL1        -0.3740
      67    C20     22.329074   22.835118   23.370059 C.3        1 MOL1         0.1003
      68    H32     22.564005   23.835124   23.757427 H          1 MOL1         0.0783
      69    O17     22.526143   21.862486   24.410317 O.3        1 MOL1        -0.5519
      70    H33     23.371336   21.391299   24.210481 H          1 MOL1         0.3769
      71    C21     20.855064   22.825865   22.906897 C.3        1 MOL1         0.1053
      72    H34     20.607812   21.808369   22.586332 H          1 MOL1         0.0783
      73    O18     20.022222   23.193026   24.008982 O.3        1 MOL1        -0.5519
      74    H35     20.378527   22.678653   24.768501 H          1 MOL1         0.3769
      75    C22     20.619774   23.764239   21.696271 C.3        1 MOL1         0.1018
      76    H36     20.576298   24.802292   22.051911 H          1 MOL1         0.0783
      77    C23     21.712214   23.612957   20.598426 C.3        1 MOL1         0.1043
      78    H37     21.538874   22.660608   20.081544 H          1 MOL1         0.0783
      79    O19     23.038213   23.590757   21.183040 O.3        1 MOL1        -0.3740
      80    C24     21.664141   24.727738   19.526442 C.3        1 MOL1         0.0138
      81    H38     20.764048   24.582633   18.913695 H          1 MOL1         0.0794
      82    H39     22.532219   24.614769   18.863178 H          1 MOL1         0.0794
      83    O20     21.648254   26.036873   20.109109 O.3        1 MOL1        -0.5486
      84    H40     21.695849   26.689777   19.376863 H          1 MOL1         0.3769
      85    C25     24.852424   17.641587   20.901219 C.3        1 MOL1         0.2972
      86    H41     25.561765   16.865764   20.584991 H          1 MOL1         0.0751
      87    O21     23.586243   17.078150   21.295366 O.3        1 MOL1        -0.3740
      88    C26     25.410749   18.463106   22.094665 C.3        1 MOL1         0.1003
      89    H42     26.332271   18.949499   21.749027 H          1 MOL1         0.0783
      90    O22     25.724790   17.625087   23.217299 O.3        1 MOL1        -0.5519
      91    H43     24.916890   17.091887   23.428552 H          1 MOL1         0.3769
      92    C27     24.412956   19.576010   22.505190 C.3        1 MOL1         0.1053
      93    H44     23.496150   19.100728   22.880789 H          1 MOL1         0.0783
      94    O23     25.000355   20.376228   23.537123 O.3        1 MOL1        -0.5519
      95    H45     25.451680   19.732706   24.129583 H          1 MOL1         0.3769
      96    C28     24.044880   20.443550   21.271416 C.3        1 MOL1         0.1018
      97    H46     24.922608   21.033073   20.975583 H          1 MOL1         0.0783
      98    C29     23.597779   19.570233   20.069862 C.3        1 MOL1         0.1043
      99    H47     22.654152   19.077680   20.333045 H          1 MOL1         0.0783
     100    O24     24.604055   18.560890   19.813017 O.3        1 MOL1        -0.3740
     101    C30     23.337463   20.375259   18.771247 C.3        1 MOL1         0.0138
     102    H48     22.333827   20.814843   18.832732 H          1 MOL1         0.0794
     103    H49     23.332951   19.679891   17.921410 H          1 MOL1         0.0794
     104    O25     24.298880   21.415205   18.555130 O.3        1 MOL1        -0.5486
     105    H50     24.151139   22.099034   19.244993 H          1 MOL1         0.3769
     106    C31     21.400757   13.681555   21.808216 C.3        1 MOL1         0.2972
     107    H51     20.959103   12.685993   21.944823 H          1 MOL1         0.0751
     108    O26     20.401335   14.688972   21.563846 O.3        1 MOL1        -0.3740
     109    C32     22.180294   14.096983   23.075462 C.3        1 MOL1         0.1003
     110    H52     23.018057   13.398720   23.201288 H          1 MOL1         0.0783
     111    O27     21.330401   14.042633   24.233004 O.3        1 MOL1        -0.5519
     112    H53     20.397462   14.119698   23.913094 H          1 MOL1         0.3769
     113    C33     22.754312   15.519315   22.897799 C.3        1 MOL1         0.1053
     114    H54     21.906781   16.211720   22.853325 H          1 MOL1         0.0783
     115    O28     23.574033   15.844406   24.023345 O.3        1 MOL1        -0.5519
     116    H55     23.067478   15.524623   24.803505 H          1 MOL1         0.3769
     117    C34     23.558560   15.666422   21.580414 C.3        1 MOL1         0.1018
     118    H56     24.563934   15.252996   21.736035 H          1 MOL1         0.0783
     119    C35     22.875507   14.989122   20.354557 C.3        1 MOL1         0.1043
     120    H57     22.056494   15.644381   20.032642 H          1 MOL1         0.0783
     121    O29     22.323657   13.691398   20.700385 O.3        1 MOL1        -0.3740
     122    C36     23.817774   14.816026   19.139775 C.3        1 MOL1         0.0138
     123    H58     24.026285   15.807634   18.715662 H          1 MOL1         0.0794
     124    H59     23.293600   14.235128   18.368965 H          1 MOL1         0.0794
     125    O30     25.046797   14.173085   19.498666 O.3        1 MOL1        -0.5486
     126    H60     25.558887   14.026138   18.673526 H          1 MOL1         0.3769
     127    N1      19.144377   19.118870   17.008291 N.4        1 MOL1        -0.4857
     128    H1      19.969581   18.542043   16.788381 H          1 MOL1         0.3650
     129    H2      19.117355   19.845392   16.276132 H          1 MOL1         0.3650
     130    C1      19.300473   19.778036   18.367674 C.3        1 MOL1         0.0209
     131    H3      18.388782   20.347197   18.558241 H          1 MOL1         0.0967
     132    H4      20.137209   20.477656   18.303101 H          1 MOL1         0.0967
     133    C2      19.545327   18.790130   19.522720 C.3        1 MOL1        -0.1378
     134    H5      18.676447   18.128362   19.607451 H          1 MOL1         0.0993
     135    H6      20.416182   18.162336   19.292534 H          1 MOL1         0.0993
     136    C3      19.755262   19.499297   20.877398 C.3        1 MOL1        -0.1338
     137    H7      18.860994   20.087997   21.123645 H          1 MOL1         0.0993
     138    H8      20.587738   20.210807   20.807236 H          1 MOL1         0.0993
     139    C4      20.034237   18.473798   22.001568 C.3        1 MOL1        -0.1338
     140    H9      19.258219   17.697131   21.990649 H          1 MOL1         0.0993
     141    H10     20.986049   17.964786   21.805139 H          1 MOL1         0.0993
     142    C5      20.075867   19.129416   23.399272 C.3        1 MOL1        -0.1313
     143    H11     19.175606   19.742492   23.550661 H          1 MOL1         0.0993
     144    H12     20.939240   19.803760   23.466429 H          1 MOL1         0.0993
     145    C6      20.166880   18.083281   24.529797 C.3        1 MOL1        -0.2328
     146    H13     19.340824   17.362192   24.472886 H          1 MOL1         0.1004
     147    H14     20.118784   18.573590   25.510523 H          1 MOL1         0.1004
     148    H15     21.111919   17.529854   24.483496 H          1 MOL1         0.1004
     149    C7      17.866823   18.288154   16.946888 C.3        1 MOL1        -0.0781
     150    H16     17.917387   17.485766   17.685770 H          1 MOL1         0.0978
     151    H17     17.012136   18.935150   17.158395 H          1 MOL1         0.0978
     152    H18     17.766548   17.861281   15.946643 H          1 MOL1         0.0978
@<TRIPOS>BOND
    1     1     2    1
    2     1     3    1
    3     1     4    1
    4     4     5    1
    5     4     6    1
    6     6     7    1
    7     4     8    1
    8     8     9    1
    9     8    10    1
   10    10    11    1
   11     8    12    1
   12    12    13    1
   13    12    14    1
   14    14    15    1
   15     1    16    1
   16    14    16    1
   17    14    17    1
   18    17    18    1
   19    17    19    1
   20    17    20    1
   21    20    21    1
   22    22    23    1
   23    22    24    1
   24    22    25    1
   25    25    26    1
   26    25    27    1
   27    27    28    1
   28    25    29    1
   29    29    30    1
   30    29    31    1
   31    31    32    1
   32     3    33    1
   33    29    33    1
   34    33    34    1
   35    33    35    1
   36    35    36    1
   37    22    37    1
   38    35    37    1
   39    35    38    1
   40    38    39    1
   41    38    40    1
   42    38    41    1
   43    41    42    1
   44    43    44    1
   45    43    45    1
   46    43    46    1
   47    46    47    1
   48    46    48    1
   49    48    49    1
   50    46    50    1
   51    50    51    1
   52    50    52    1
   53    52    53    1
   54    24    54    1
   55    50    54    1
   56    54    55    1
   57    54    56    1
   58    56    57    1
   59    43    58    1
   60    56    58    1
   61    56    59    1
   62    59    60    1
   63    59    61    1
   64    59    62    1
   65    62    63    1
   66    64    65    1
   67    64    66    1
   68    64    67    1
   69    67    68    1
   70    67    69    1
   71    69    70    1
   72    67    71    1
   73    71    72    1
   74    71    73    1
   75    73    74    1
   76    45    75    1
   77    71    75    1
   78    75    76    1
   79    75    77    1
   80    77    78    1
   81    64    79    1
   82    77    79    1
   83    77    80    1
   84    80    81    1
   85    80    82    1
   86    80    83    1
   87    83    84    1
   88    85    86    1
   89    85    87    1
   90    85    88    1
   91    88    89    1
   92    88    90    1
   93    90    91    1
   94    88    92    1
   95    92    93    1
   96    92    94    1
   97    94    95    1
   98    66    96    1
   99    92    96    1
  100    96    97    1
  101    96    98    1
  102    98    99    1
  103    85   100    1
  104    98   100    1
  105    98   101    1
  106   101   102    1
  107   101   103    1
  108   101   104    1
  109   104   105    1
  110   106   107    1
  111    12   108    1
  112   106   108    1
  113   106   109    1
  114   109   110    1
  115   109   111    1
  116   111   112    1
  117   109   113    1
  118   113   114    1
  119   113   115    1
  120   115   116    1
  121    87   117    1
  122   113   117    1
  123   117   118    1
  124   117   119    1
  125   119   120    1
  126   106   121    1
  127   119   121    1
  128   119   122    1
  129   122   123    1
  130   122   124    1
  131   122   125    1
  132   125   126    1
  133   127   128    1
  134   127   129    1
  135   127   130    1
  136   130   131    1
  137   130   132    1
  138   130   133    1
  139   133   134    1
  140   133   135    1
  141   133   136    1
  142   136   137    1
  143   136   138    1
  144   136   139    1
  145   139   140    1
  146   139   141    1
  147   139   142    1
  148   142   143    1
  149   142   144    1
  150   142   145    1
  151   145   146    1
  152   145   147    1
  153   145   148    1
  154   127   149    1
  155   149   150    1
  156   149   151    1
  157   149   152    1
@<TRIPOS>SUBSTRUCTURE
       1 MOL1            1 RESIDUE      1      MOL     
       2 MOL1          152 RESIDUE      1      MOL     
@<SCITEGIC>MOL_PROPERTY
feprocess Rank
SciTegic.value.IntegerValue
4

@<SCITEGIC>MOL_PROPERTY
Conf_Id
SciTegic.value.IntegerValue
43

@<SCITEGIC>MOL_PROPERTY
Probability
SciTegic.value.DoubleValue
3.65

@<SCITEGIC>MOL_PROPERTY
G
SciTegic.value.DoubleValue
606.076

@<SCITEGIC>MOL_PROPERTY
E
SciTegic.value.DoubleValue
402.893

@<SCITEGIC>MOL_PROPERTY
-TS
SciTegic.value.DoubleValue
203.183

@<SCITEGIC>MOL_PROPERTY
U+W
SciTegic.value.DoubleValue
268.756

@<SCITEGIC>MOL_PROPERTY
U
SciTegic.value.DoubleValue
347.008

@<SCITEGIC>MOL_PROPERTY
W
SciTegic.value.DoubleValue
-78.252

@<SCITEGIC>MOL_PROPERTY
W(PB)
SciTegic.value.DoubleValue
-84.252

@<SCITEGIC>MOL_PROPERTY
W(SA)
SciTegic.value.DoubleValue
6.000

@<SCITEGIC>MOL_PROPERTY
Valence
SciTegic.value.DoubleValue
150.068

@<SCITEGIC>MOL_PROPERTY
Coulomb
SciTegic.value.DoubleValue
225.478

@<SCITEGIC>MOL_PROPERTY
VdW
SciTegic.value.DoubleValue
-28.537

@<SCITEGIC>MOL_PROPERTY
VdW6
SciTegic.value.DoubleValue
-185.838

@<SCITEGIC>MOL_PROPERTY
VdW12
SciTegic.value.DoubleValue
157.301

@<SCITEGIC>MOL_PROPERTY
Bond
SciTegic.value.DoubleValue
4.650

@<SCITEGIC>MOL_PROPERTY
Angle
SciTegic.value.DoubleValue
11.957

@<SCITEGIC>MOL_PROPERTY
Pdih
SciTegic.value.DoubleValue
133.460

@<SCITEGIC>MOL_PROPERTY
Idih
SciTegic.value.DoubleValue
0.000

@<SCITEGIC>MOL_PROPERTY
Tether
SciTegic.value.DoubleValue
0.000

@<TRIPOS>MOLECULE
CD_guest-s12_fast_vm2_rndm.mol2 : feprocess host+ligand conformer 5
         152         157           2
SMALL
USER_CHARGES
 
@<TRIPOS>ATOM
       1    C1      16.489832   15.322119   22.147916 C.3        1 MOL1         0.2972
       2    H1      15.494383   15.167340   22.583758 H          1 MOL1         0.0751
       3    O1      16.622372   16.644035   21.588596 O.3        1 MOL1        -0.3740
       4    C2      17.582862   15.111988   23.227989 C.3        1 MOL1         0.1003
       5    H2      17.469206   14.088225   23.607759 H          1 MOL1         0.0783
       6    O2      17.442222   16.040568   24.316036 O.3        1 MOL1        -0.5519
       7    H3      16.543477   16.444527   24.242394 H          1 MOL1         0.3769
       8    C3      18.996688   15.248662   22.623942 C.3        1 MOL1         0.1053
       9    H4      19.132330   16.299519   22.352616 H          1 MOL1         0.0783
      10    O3      19.958613   14.882317   23.616721 O.3        1 MOL1        -0.5519
      11    H5      19.660166   15.344186   24.432590 H          1 MOL1         0.3769
      12    C4      19.178931   14.396550   21.342228 C.3        1 MOL1         0.1018
      13    H6      19.303699   13.344905   21.631223 H          1 MOL1         0.0783
      14    C5      17.976185   14.529530   20.366942 C.3        1 MOL1         0.1043
      15    H7      18.010334   15.530556   19.917438 H          1 MOL1         0.0783
      16    O4      16.727324   14.372364   21.087554 O.3        1 MOL1        -0.3740
      17    C6      18.006046   13.507388   19.205474 C.3        1 MOL1         0.0138
      18    H8      18.815168   13.786688   18.517120 H          1 MOL1         0.0794
      19    H9      17.062840   13.583309   18.648016 H          1 MOL1         0.0794
      20    O5      18.204864   12.165926   19.668683 O.3        1 MOL1        -0.5486
      21    H10     18.129737   11.568079   18.893102 H          1 MOL1         0.3769
      22    C7      14.620864   20.253260   21.408753 C.3        1 MOL1         0.2972
      23    H11     13.896253   21.072093   21.313677 H          1 MOL1         0.0751
      24    O6      15.971748   20.740381   21.508970 O.3        1 MOL1        -0.3740
      25    C8      14.326443   19.436767   22.687325 C.3        1 MOL1         0.1003
      26    H12     13.316315   19.018328   22.588688 H          1 MOL1         0.0783
      27    O7      14.380219   20.282628   23.847500 O.3        1 MOL1        -0.5519
      28    H13     14.984685   21.033921   23.628035 H          1 MOL1         0.3769
      29    C9      15.322255   18.262129   22.828896 C.3        1 MOL1         0.1053
      30    H14     16.316018   18.682682   23.036095 H          1 MOL1         0.0783
      31    O8      14.907371   17.437870   23.923081 O.3        1 MOL1        -0.5519
      32    H15     14.646914   18.072261   24.629397 H          1 MOL1         0.3769
      33    C10     15.414551   17.428256   21.521701 C.3        1 MOL1         0.1018
      34    H16     14.524431   16.792029   21.425613 H          1 MOL1         0.0783
      35    C11     15.531867   18.305203   20.244874 C.3        1 MOL1         0.1043
      36    H17     16.539314   18.736311   20.203924 H          1 MOL1         0.0783
      37    O9      14.537857   19.360399   20.279564 O.3        1 MOL1        -0.3740
      38    C12     15.305805   17.473361   18.962761 C.3        1 MOL1         0.0138
      39    H18     14.238156   17.231164   18.875451 H          1 MOL1         0.0794
      40    H19     15.854600   16.525867   19.048700 H          1 MOL1         0.0794
      41    O10     15.758376   18.185680   17.807849 O.3        1 MOL1        -0.5486
      42    H20     15.514493   17.659349   17.016811 H          1 MOL1         0.3769
      43    C13     18.387019   24.006447   20.742926 C.3        1 MOL1         0.2972
      44    H21     18.817913   24.964600   20.424887 H          1 MOL1         0.0751
      45    O11     19.395574   23.098225   21.236336 O.3        1 MOL1        -0.3740
      46    C14     17.349880   24.216897   21.875328 C.3        1 MOL1         0.1003
      47    H22     16.552296   24.858754   21.479185 H          1 MOL1         0.0783
      48    O12     17.950347   24.854764   23.014153 O.3        1 MOL1        -0.5519
      49    H23     18.807416   24.392785   23.198350 H          1 MOL1         0.3769
      50    C15     16.719285   22.864321   22.285680 C.3        1 MOL1         0.1053
      51    H24     17.502632   22.255530   22.751447 H          1 MOL1         0.0783
      52    O13     15.662672   23.081807   23.226026 O.3        1 MOL1        -0.5519
      53    H25     16.018652   23.739868   23.864002 H          1 MOL1         0.3769
      54    C16     16.184525   22.088480   21.057280 C.3        1 MOL1         0.1018
      55    H26     15.258821   22.569660   20.715175 H          1 MOL1         0.0783
      56    C17     17.208037   22.042561   19.889256 C.3        1 MOL1         0.1043
      57    H27     18.042385   21.408204   20.199264 H          1 MOL1         0.0783
      58    O14     17.706174   23.376512   19.635820 O.3        1 MOL1        -0.3740
      59    C18     16.673215   21.449038   18.560602 C.3        1 MOL1         0.0138
      60    H28     16.899120   20.375855   18.547086 H          1 MOL1         0.0794
      61    H29     17.227956   21.898361   17.726325 H          1 MOL1         0.0794
      62    O15     15.267021   21.641406   18.374799 O.3        1 MOL1        -0.5486
      63    H30     14.828388   20.839039   18.745436 H          1 MOL1         0.3769
      64    C19     23.513643   22.694132   21.556538 C.3        1 MOL1         0.2972
      65    H31     24.599407   22.852212   21.585175 H          1 MOL1         0.0751
      66    O16     23.184315   21.288593   21.531565 O.3        1 MOL1        -0.3740
      67    C20     22.822369   23.358352   22.777436 C.3        1 MOL1         0.1003
      68    H32     23.020672   24.436418   22.716674 H          1 MOL1         0.0783
      69    O17     23.338718   22.860104   24.021080 O.3        1 MOL1        -0.5519
      70    H33     23.218311   21.877948   24.018581 H          1 MOL1         0.3769
      71    C21     21.291407   23.151242   22.704480 C.3        1 MOL1         0.1053
      72    H34     21.090715   22.078286   22.802256 H          1 MOL1         0.0783
      73    O18     20.655646   23.860579   23.772468 O.3        1 MOL1        -0.5519
      74    H35     21.217859   23.693260   24.561453 H          1 MOL1         0.3769
      75    C22     20.729170   23.630133   21.344396 C.3        1 MOL1         0.1018
      76    H36     20.735356   24.728278   21.340394 H          1 MOL1         0.0783
      77    C23     21.549157   23.089854   20.139278 C.3        1 MOL1         0.1043
      78    H37     21.355775   22.013203   20.046713 H          1 MOL1         0.0783
      79    O19     22.964630   23.299901   20.367369 O.3        1 MOL1        -0.3740
      80    C24     21.171560   23.745204   18.788896 C.3        1 MOL1         0.0138
      81    H38     20.182080   23.377149   18.486412 H          1 MOL1         0.0794
      82    H39     21.888882   23.413938   18.026144 H          1 MOL1         0.0794
      83    O20     21.153857   25.176239   18.868357 O.3        1 MOL1        -0.5486
      84    H40     20.969492   25.522101   17.967958 H          1 MOL1         0.3769
      85    C25     24.854373   17.522835   21.963263 C.3        1 MOL1         0.2972
      86    H41     25.482205   16.646910   22.169933 H          1 MOL1         0.0751
      87    O21     23.736003   17.193460   21.111579 O.3        1 MOL1        -0.3740
      88    C26     24.331703   18.155570   23.281565 C.3        1 MOL1         0.1003
      89    H42     25.208353   18.506107   23.842120 H          1 MOL1         0.0783
      90    O22     23.597536   17.226701   24.093880 O.3        1 MOL1        -0.5519
      91    H43     23.848283   16.318480   23.799330 H          1 MOL1         0.3769
      92    C27     23.439785   19.373510   22.964849 C.3        1 MOL1         0.1053
      93    H44     22.568512   19.000832   22.415100 H          1 MOL1         0.0783
      94    O23     23.019867   19.973469   24.195146 O.3        1 MOL1        -0.5519
      95    H45     23.016489   19.216044   24.827407 H          1 MOL1         0.3769
      96    C28     24.181990   20.395849   22.069372 C.3        1 MOL1         0.1018
      97    H46     24.917425   20.926651   22.688705 H          1 MOL1         0.0783
      98    C29     24.895020   19.718460   20.862016 C.3        1 MOL1         0.1043
      99    H47     24.125244   19.414217   20.140662 H          1 MOL1         0.0783
     100    O24     25.627678   18.541608   21.293678 O.3        1 MOL1        -0.3740
     101    C30     25.874624   20.656376   20.116479 C.3        1 MOL1         0.0138
     102    H48     25.289683   21.408933   19.570473 H          1 MOL1         0.0794
     103    H49     26.424193   20.066865   19.370406 H          1 MOL1         0.0794
     104    O25     26.788003   21.305385   21.010174 O.3        1 MOL1        -0.5486
     105    H50     27.428259   21.812916   20.464980 H          1 MOL1         0.3769
     106    C31     21.334201   13.961492   20.225614 C.3        1 MOL1         0.2972
     107    H51     20.866710   13.034749   19.869028 H          1 MOL1         0.0751
     108    O26     20.340104   14.917167   20.659447 O.3        1 MOL1        -0.3740
     109    C32     22.350659   13.674205   21.363032 C.3        1 MOL1         0.1003
     110    H52     23.145878   13.055138   20.927248 H          1 MOL1         0.0783
     111    O27     21.763283   12.957070   22.458502 O.3        1 MOL1        -0.5519
     112    H53     21.116825   13.573466   22.886216 H          1 MOL1         0.3769
     113    C33     22.996847   14.987435   21.863990 C.3        1 MOL1         0.1053
     114    H54     22.214153   15.589219   22.345749 H          1 MOL1         0.0783
     115    O28     24.014803   14.653786   22.814943 O.3        1 MOL1        -0.5519
     116    H55     23.645805   13.897695   23.326719 H          1 MOL1         0.3769
     117    C34     23.591377   15.820017   20.692546 C.3        1 MOL1         0.1018
     118    H56     24.556581   15.389532   20.397814 H          1 MOL1         0.0783
     119    C35     22.650990   15.876077   19.455147 C.3        1 MOL1         0.1043
     120    H57     21.833850   16.563752   19.695825 H          1 MOL1         0.0783
     121    O29     22.091033   14.572410   19.159999 O.3        1 MOL1        -0.3740
     122    C36     23.330612   16.429204   18.178714 C.3        1 MOL1         0.0138
     123    H58     23.526695   17.500411   18.321904 H          1 MOL1         0.0794
     124    H59     22.624299   16.338310   17.342838 H          1 MOL1         0.0794
     125    O30     24.551993   15.749741   17.863639 O.3        1 MOL1        -0.5486
     126    H60     25.235068   16.054056   18.498531 H          1 MOL1         0.3769
     127    N1      20.076588   19.768683   24.458849 N.4        1 MOL1        -0.4857
     128    H1      21.049999   20.109214   24.344901 H          1 MOL1         0.3650
     129    H2      20.086583   19.217475   25.330578 H          1 MOL1         0.3650
     130    C1      19.709811   18.863468   23.296742 C.3        1 MOL1         0.0209
     131    H3      18.697021   18.486189   23.463576 H          1 MOL1         0.0967
     132    H4      20.396779   18.013133   23.329313 H          1 MOL1         0.0967
     133    C2      19.802349   19.529931   21.909032 C.3        1 MOL1        -0.1378
     134    H5      19.020438   20.292363   21.818478 H          1 MOL1         0.0993
     135    H6      20.762158   20.047226   21.806284 H          1 MOL1         0.0993
     136    C3      19.656972   18.487494   20.781674 C.3        1 MOL1        -0.1338
     137    H7      18.639302   18.080605   20.799248 H          1 MOL1         0.0993
     138    H8      20.336224   17.647487   20.975214 H          1 MOL1         0.0993
     139    C4      19.968588   19.065407   19.384515 C.3        1 MOL1        -0.1338
     140    H9      19.436539   20.012638   19.239750 H          1 MOL1         0.0993
     141    H10     21.041531   19.293712   19.316975 H          1 MOL1         0.0993
     142    C5      19.564702   18.084174   18.261546 C.3        1 MOL1        -0.1313
     143    H11     18.481492   17.903093   18.303075 H          1 MOL1         0.0993
     144    H12     20.048318   17.110182   18.414169 H          1 MOL1         0.0993
     145    C6      19.935249   18.630034   16.867224 C.3        1 MOL1        -0.2328
     146    H13     19.425934   19.582180   16.669191 H          1 MOL1         0.1004
     147    H14     19.638014   17.921406   16.083382 H          1 MOL1         0.1004
     148    H15     21.017005   18.794813   16.780765 H          1 MOL1         0.1004
     149    C7      19.101824   20.931067   24.592940 C.3        1 MOL1        -0.0781
     150    H16     19.367303   21.519783   25.473711 H          1 MOL1         0.0978
     151    H17     19.168795   21.559056   23.702622 H          1 MOL1         0.0978
     152    H18     18.087535   20.540154   24.699678 H          1 MOL1         0.0978
@<TRIPOS>BOND
    1     1     2    1
    2     1     3    1
    3     1     4    1
    4     4     5    1
    5     4     6    1
    6     6     7    1
    7     4     8    1
    8     8     9    1
    9     8    10    1
   10    10    11    1
   11     8    12    1
   12    12    13    1
   13    12    14    1
   14    14    15    1
   15     1    16    1
   16    14    16    1
   17    14    17    1
   18    17    18    1
   19    17    19    1
   20    17    20    1
   21    20    21    1
   22    22    23    1
   23    22    24    1
   24    22    25    1
   25    25    26    1
   26    25    27    1
   27    27    28    1
   28    25    29    1
   29    29    30    1
   30    29    31    1
   31    31    32    1
   32     3    33    1
   33    29    33    1
   34    33    34    1
   35    33    35    1
   36    35    36    1
   37    22    37    1
   38    35    37    1
   39    35    38    1
   40    38    39    1
   41    38    40    1
   42    38    41    1
   43    41    42    1
   44    43    44    1
   45    43    45    1
   46    43    46    1
   47    46    47    1
   48    46    48    1
   49    48    49    1
   50    46    50    1
   51    50    51    1
   52    50    52    1
   53    52    53    1
   54    24    54    1
   55    50    54    1
   56    54    55    1
   57    54    56    1
   58    56    57    1
   59    43    58    1
   60    56    58    1
   61    56    59    1
   62    59    60    1
   63    59    61    1
   64    59    62    1
   65    62    63    1
   66    64    65    1
   67    64    66    1
   68    64    67    1
   69    67    68    1
   70    67    69    1
   71    69    70    1
   72    67    71    1
   73    71    72    1
   74    71    73    1
   75    73    74    1
   76    45    75    1
   77    71    75    1
   78    75    76    1
   79    75    77    1
   80    77    78    1
   81    64    79    1
   82    77    79    1
   83    77    80    1
   84    80    81    1
   85    80    82    1
   86    80    83    1
   87    83    84    1
   88    85    86    1
   89    85    87    1
   90    85    88    1
   91    88    89    1
   92    88    90    1
   93    90    91    1
   94    88    92    1
   95    92    93    1
   96    92    94    1
   97    94    95    1
   98    66    96    1
   99    92    96    1
  100    96    97    1
  101    96    98    1
  102    98    99    1
  103    85   100    1
  104    98   100    1
  105    98   101    1
  106   101   102    1
  107   101   103    1
  108   101   104    1
  109   104   105    1
  110   106   107    1
  111    12   108    1
  112   106   108    1
  113   106   109    1
  114   109   110    1
  115   109   111    1
  116   111   112    1
  117   109   113    1
  118   113   114    1
  119   113   115    1
  120   115   116    1
  121    87   117    1
  122   113   117    1
  123   117   118    1
  124   117   119    1
  125   119   120    1
  126   106   121    1
  127   119   121    1
  128   119   122    1
  129   122   123    1
  130   122   124    1
  131   122   125    1
  132   125   126    1
  133   127   128    1
  134   127   129    1
  135   127   130    1
  136   130   131    1
  137   130   132    1
  138   130   133    1
  139   133   134    1
  140   133   135    1
  141   133   136    1
  142   136   137    1
  143   136   138    1
  144   136   139    1
  145   139   140    1
  146   139   141    1
  147   139   142    1
  148   142   143    1
  149   142   144    1
  150   142   145    1
  151   145   146    1
  152   145   147    1
  153   145   148    1
  154   127   149    1
  155   149   150    1
  156   149   151    1
  157   149   152    1
@<TRIPOS>SUBSTRUCTURE
       1 MOL1            1 RESIDUE      1      MOL     
       2 MOL1          152 RESIDUE      1      MOL     
@<SCITEGIC>MOL_PROPERTY
feprocess Rank
SciTegic.value.IntegerValue
5

@<SCITEGIC>MOL_PROPERTY
Conf_Id
SciTegic.value.IntegerValue
503

@<SCITEGIC>MOL_PROPERTY
Probability
SciTegic.value.DoubleValue
3.07

@<SCITEGIC>MOL_PROPERTY
G
SciTegic.value.DoubleValue
606.179

@<SCITEGIC>MOL_PROPERTY
E
SciTegic.value.DoubleValue
402.627

@<SCITEGIC>MOL_PROPERTY
-TS
SciTegic.value.DoubleValue
203.552

@<SCITEGIC>MOL_PROPERTY
U+W
SciTegic.value.DoubleValue
268.490

@<SCITEGIC>MOL_PROPERTY
U
SciTegic.value.DoubleValue
344.626

@<SCITEGIC>MOL_PROPERTY
W
SciTegic.value.DoubleValue
-76.135

@<SCITEGIC>MOL_PROPERTY
W(PB)
SciTegic.value.DoubleValue
-82.200

@<SCITEGIC>MOL_PROPERTY
W(SA)
SciTegic.value.DoubleValue
6.065

@<SCITEGIC>MOL_PROPERTY
Valence
SciTegic.value.DoubleValue
147.741

@<SCITEGIC>MOL_PROPERTY
Coulomb
SciTegic.value.DoubleValue
224.142

@<SCITEGIC>MOL_PROPERTY
VdW
SciTegic.value.DoubleValue
-27.257

@<SCITEGIC>MOL_PROPERTY
VdW6
SciTegic.value.DoubleValue
-184.193

@<SCITEGIC>MOL_PROPERTY
VdW12
SciTegic.value.DoubleValue
156.936

@<SCITEGIC>MOL_PROPERTY
Bond
SciTegic.value.DoubleValue
4.637

@<SCITEGIC>MOL_PROPERTY
Angle
SciTegic.value.DoubleValue
11.727

@<SCITEGIC>MOL_PROPERTY
Pdih
SciTegic.value.DoubleValue
131.376

@<SCITEGIC>MOL_PROPERTY
Idih
SciTegic.value.DoubleValue
0.000

@<SCITEGIC>MOL_PROPERTY
Tether
SciTegic.value.DoubleValue
0.000

@<TRIPOS>MOLECULE
CD_guest-s12_fast_vm2_rndm.mol2 : feprocess host+ligand conformer 6
         152         157           2
SMALL
USER_CHARGES
 
@<TRIPOS>ATOM
       1    C1      16.082595   15.037528   20.840280 C.3        1 MOL1         0.2972
       2    H1      14.997385   14.931026   20.714146 H          1 MOL1         0.0751
       3    O1      16.460447   16.414474   21.066567 O.3        1 MOL1        -0.3740
       4    C2      16.604883   14.158856   22.006071 C.3        1 MOL1         0.1003
       5    H2      16.447414   13.111198   21.717812 H          1 MOL1         0.0783
       6    O2      15.899665   14.408465   23.229907 O.3        1 MOL1        -0.5519
       7    H3      16.045118   15.359862   23.460261 H          1 MOL1         0.3769
       8    C3      18.125895   14.378499   22.185853 C.3        1 MOL1         0.1053
       9    H4      18.289228   15.420391   22.488627 H          1 MOL1         0.0783
      10    O3      18.619586   13.501561   23.202165 O.3        1 MOL1        -0.5519
      11    H5      17.950659   13.541124   23.922028 H          1 MOL1         0.3769
      12    C4      18.884345   14.128313   20.856889 C.3        1 MOL1         0.1018
      13    H6      18.953644   13.042779   20.708063 H          1 MOL1         0.0783
      14    C5      18.197204   14.781761   19.621515 C.3        1 MOL1         0.1043
      15    H7      18.392638   15.859133   19.649512 H          1 MOL1         0.0783
      16    O4      16.762161   14.576077   19.653700 O.3        1 MOL1        -0.3740
      17    C6      18.740760   14.254905   18.271923 C.3        1 MOL1         0.0138
      18    H8      19.769548   14.618079   18.144999 H          1 MOL1         0.0794
      19    H9      18.139804   14.685203   17.459679 H          1 MOL1         0.0794
      20    O5      18.719779   12.823441   18.202896 O.3        1 MOL1        -0.5486
      21    H10     19.032370   12.563923   17.308782 H          1 MOL1         0.3769
      22    C7      15.103306   20.182331   22.047384 C.3        1 MOL1         0.2972
      23    H11     14.538589   21.073165   22.350734 H          1 MOL1         0.0751
      24    O6      16.377036   20.529171   21.469678 O.3        1 MOL1        -0.3740
      25    C8      15.359518   19.271968   23.271206 C.3        1 MOL1         0.1003
      26    H12     14.380211   18.965371   23.661612 H          1 MOL1         0.0783
      27    O7      16.088748   19.971281   24.296470 O.3        1 MOL1        -0.5519
      28    H13     15.990415   20.937161   24.107084 H          1 MOL1         0.3769
      29    C9      16.137009   18.007803   22.842499 C.3        1 MOL1         0.1053
      30    H14     17.125327   18.333249   22.507106 H          1 MOL1         0.0783
      31    O8      16.270796   17.139761   23.972383 O.3        1 MOL1        -0.5519
      32    H15     16.101871   17.711442   24.754092 H          1 MOL1         0.3769
      33    C10     15.462888   17.278594   21.651569 C.3        1 MOL1         0.1018
      34    H16     14.595246   16.718291   22.024634 H          1 MOL1         0.0783
      35    C11     15.026059   18.259111   20.524825 C.3        1 MOL1         0.1043
      36    H17     15.930750   18.589164   19.998930 H          1 MOL1         0.0783
      37    O9      14.356196   19.421695   21.075234 O.3        1 MOL1        -0.3740
      38    C12     14.098190   17.608500   19.471272 C.3        1 MOL1         0.0138
      39    H18     14.688442   16.893789   18.881750 H          1 MOL1         0.0794
      40    H19     13.747492   18.388803   18.782539 H          1 MOL1         0.0794
      41    O10     12.984538   16.937227   20.073708 O.3        1 MOL1        -0.5486
      42    H20     12.403506   16.615544   19.350089 H          1 MOL1         0.3769
      43    C13     18.558165   23.991472   20.650197 C.3        1 MOL1         0.2972
      44    H21     18.872549   24.983982   20.302392 H          1 MOL1         0.0751
      45    O11     19.679021   23.194690   21.085758 O.3        1 MOL1        -0.3740
      46    C14     17.571103   24.110576   21.841844 C.3        1 MOL1         0.1003
      47    H22     16.693347   24.665640   21.485998 H          1 MOL1         0.0783
      48    O12     18.161834   24.824019   22.939723 O.3        1 MOL1        -0.5519
      49    H23     19.079204   24.472370   23.068473 H          1 MOL1         0.3769
      50    C15     17.095001   22.708708   22.298393 C.3        1 MOL1         0.1053
      51    H24     17.963211   22.171609   22.699651 H          1 MOL1         0.0783
      52    O13     16.104194   22.851554   23.322451 O.3        1 MOL1        -0.5519
      53    H25     16.440776   23.574421   23.899238 H          1 MOL1         0.3769
      54    C16     16.533653   21.908028   21.092275 C.3        1 MOL1         0.1018
      55    H26     15.577506   22.351211   20.784708 H          1 MOL1         0.0783
      56    C17     17.507772   21.919363   19.885727 C.3        1 MOL1         0.1043
      57    H27     18.403981   21.351257   20.162491 H          1 MOL1         0.0783
      58    O14     17.886024   23.283059   19.585061 O.3        1 MOL1        -0.3740
      59    C18     16.927962   21.260181   18.607944 C.3        1 MOL1         0.0138
      60    H28     17.042143   20.172174   18.697332 H          1 MOL1         0.0794
      61    H29     17.529543   21.577270   17.745756 H          1 MOL1         0.0794
      62    O15     15.547844   21.576708   18.389669 O.3        1 MOL1        -0.5486
      63    H30     15.028455   21.118855   19.086757 H          1 MOL1         0.3769
      64    C19     23.763479   22.964251   21.262978 C.3        1 MOL1         0.2972
      65    H31     24.854990   23.079199   21.247935 H          1 MOL1         0.0751
      66    O16     23.378878   21.569895   21.306392 O.3        1 MOL1        -0.3740
      67    C20     23.131593   23.733662   22.452867 C.3        1 MOL1         0.1003
      68    H32     23.299804   24.803219   22.270446 H          1 MOL1         0.0783
      69    O17     23.730413   23.386044   23.709086 O.3        1 MOL1        -0.5519
      70    H33     23.505658   22.437593   23.880556 H          1 MOL1         0.3769
      71    C21     21.604283   23.491560   22.477016 C.3        1 MOL1         0.1053
      72    H34     21.429322   22.425784   22.669462 H          1 MOL1         0.0783
      73    O18     21.007660   24.270269   23.518502 O.3        1 MOL1        -0.5519
      74    H35     21.601455   24.160577   24.294470 H          1 MOL1         0.3769
      75    C22     20.959884   23.854127   21.114830 C.3        1 MOL1         0.1018
      76    H36     20.861816   24.946772   21.068698 H          1 MOL1         0.0783
      77    C23     21.768237   23.341860   19.884707 C.3        1 MOL1         0.1043
      78    H37     21.583086   22.267688   19.776924 H          1 MOL1         0.0783
      79    O19     23.192382   23.544430   20.071217 O.3        1 MOL1        -0.3740
      80    C24     21.345413   24.006570   18.552909 C.3        1 MOL1         0.0138
      81    H38     20.344204   23.643234   18.284441 H          1 MOL1         0.0794
      82    H39     22.034180   23.677912   17.763167 H          1 MOL1         0.0794
      83    O20     21.335229   25.436916   18.641742 O.3        1 MOL1        -0.5486
      84    H40     21.121345   25.789246   17.750231 H          1 MOL1         0.3769
      85    C25     24.588952   17.751755   22.373364 C.3        1 MOL1         0.2972
      86    H41     25.121426   16.870349   22.751596 H          1 MOL1         0.0751
      87    O21     23.478746   17.382601   21.529408 O.3        1 MOL1        -0.3740
      88    C26     24.052131   18.604464   23.550151 C.3        1 MOL1         0.1003
      89    H42     24.917560   18.907708   24.153800 H          1 MOL1         0.0783
      90    O22     23.134656   17.861314   24.371234 O.3        1 MOL1        -0.5519
      91    H43     23.351585   16.905440   24.252802 H          1 MOL1         0.3769
      92    C27     23.354063   19.877096   23.024527 C.3        1 MOL1         0.1053
      93    H44     22.460493   19.560116   22.479717 H          1 MOL1         0.0783
      94    O23     22.975059   20.678197   24.145696 O.3        1 MOL1        -0.5519
      95    H45     22.661589   20.025774   24.811992 H          1 MOL1         0.3769
      96    C28     24.244365   20.671168   22.034626 C.3        1 MOL1         0.1018
      97    H46     25.016389   21.207545   22.602093 H          1 MOL1         0.0783
      98    C29     24.909007   19.746246   20.975360 C.3        1 MOL1         0.1043
      99    H47     24.131910   19.419218   20.272737 H          1 MOL1         0.0783
     100    O24     25.490486   18.578066   21.606628 O.3        1 MOL1        -0.3740
     101    C30     26.006505   20.454978   20.145976 C.3        1 MOL1         0.0138
     102    H48     25.523131   21.180642   19.477833 H          1 MOL1         0.0794
     103    H49     26.504104   19.708632   19.512314 H          1 MOL1         0.0794
     104    O25     26.964854   21.123663   20.975733 O.3        1 MOL1        -0.5486
     105    H50     27.667089   21.482498   20.390223 H          1 MOL1         0.3769
     106    C31     21.318471   13.910413   20.672320 C.3        1 MOL1         0.2972
     107    H51     21.013117   12.910400   20.338825 H          1 MOL1         0.0751
     108    O26     20.182993   14.740863   20.996483 O.3        1 MOL1        -0.3740
     109    C32     22.212481   13.815128   21.934199 C.3        1 MOL1         0.1003
     110    H52     23.105526   13.239332   21.658042 H          1 MOL1         0.0783
     111    O27     21.536139   13.138422   23.005505 O.3        1 MOL1        -0.5519
     112    H53     20.595086   13.448542   23.010737 H          1 MOL1         0.3769
     113    C33     22.677586   15.221851   22.385764 C.3        1 MOL1         0.1053
     114    H54     21.793075   15.788705   22.704521 H          1 MOL1         0.0783
     115    O28     23.576908   15.069696   23.489383 O.3        1 MOL1        -0.5519
     116    H55     23.187035   14.344723   24.030067 H          1 MOL1         0.3769
     117    C34     23.351486   15.982292   21.207043 C.3        1 MOL1         0.1018
     118    H56     24.331751   15.532409   21.003973 H          1 MOL1         0.0783
     119    C35     22.487373   15.925341   19.918078 C.3        1 MOL1         0.1043
     120    H57     21.588812   16.526830   20.087192 H          1 MOL1         0.0783
     121    O29     22.090354   14.562001   19.640442 O.3        1 MOL1        -0.3740
     122    C36     23.191188   16.508195   18.667380 C.3        1 MOL1         0.0138
     123    H58     23.205935   17.602830   18.753007 H          1 MOL1         0.0794
     124    H59     22.590575   16.261203   17.781977 H          1 MOL1         0.0794
     125    O30     24.528567   16.020984   18.506419 O.3        1 MOL1        -0.5486
     126    H60     25.079711   16.437718   19.203332 H          1 MOL1         0.3769
     127    N1      18.576964   18.688332   25.230767 N.4        1 MOL1        -0.4857
     128    H1      18.409006   17.788981   24.751676 H          1 MOL1         0.3650
     129    H2      17.721803   19.252240   25.051506 H          1 MOL1         0.3650
     130    C1      19.778981   19.391027   24.635486 C.3        1 MOL1         0.0209
     131    H3      20.670921   18.794616   24.846872 H          1 MOL1         0.0967
     132    H4      19.878400   20.353817   25.143144 H          1 MOL1         0.0967
     133    C2      19.650782   19.622705   23.120856 C.3        1 MOL1        -0.1378
     134    H5      18.667018   20.052054   22.899985 H          1 MOL1         0.0993
     135    H6      20.388005   20.376325   22.824357 H          1 MOL1         0.0993
     136    C3      19.862267   18.322484   22.307718 C.3        1 MOL1        -0.1338
     137    H7      19.185162   17.541274   22.672998 H          1 MOL1         0.0993
     138    H8      20.875858   17.937341   22.477988 H          1 MOL1         0.0993
     139    C4      19.623604   18.516047   20.792171 C.3        1 MOL1        -0.1338
     140    H9      19.639093   17.532700   20.310524 H          1 MOL1         0.0993
     141    H10     18.617047   18.921774   20.623238 H          1 MOL1         0.0993
     142    C5      20.681799   19.423790   20.124627 C.3        1 MOL1        -0.1313
     143    H11     21.688086   19.051586   20.354688 H          1 MOL1         0.0993
     144    H12     20.618978   20.436221   20.541428 H          1 MOL1         0.0993
     145    C6      20.509185   19.487793   18.593135 C.3        1 MOL1        -0.2328
     146    H13     19.528277   19.894130   18.320530 H          1 MOL1         0.1004
     147    H14     20.601610   18.490959   18.143110 H          1 MOL1         0.1004
     148    H15     21.276605   20.131937   18.144609 H          1 MOL1         0.1004
     149    C7      18.780631   18.475514   26.722604 C.3        1 MOL1        -0.0781
     150    H16     18.912828   19.445066   27.207383 H          1 MOL1         0.0978
     151    H17     17.903282   17.972622   27.135043 H          1 MOL1         0.0978
     152    H18     19.668394   17.858760   26.878285 H          1 MOL1         0.0978
@<TRIPOS>BOND
    1     1     2    1
    2     1     3    1
    3     1     4    1
    4     4     5    1
    5     4     6    1
    6     6     7    1
    7     4     8    1
    8     8     9    1
    9     8    10    1
   10    10    11    1
   11     8    12    1
   12    12    13    1
   13    12    14    1
   14    14    15    1
   15     1    16    1
   16    14    16    1
   17    14    17    1
   18    17    18    1
   19    17    19    1
   20    17    20    1
   21    20    21    1
   22    22    23    1
   23    22    24    1
   24    22    25    1
   25    25    26    1
   26    25    27    1
   27    27    28    1
   28    25    29    1
   29    29    30    1
   30    29    31    1
   31    31    32    1
   32     3    33    1
   33    29    33    1
   34    33    34    1
   35    33    35    1
   36    35    36    1
   37    22    37    1
   38    35    37    1
   39    35    38    1
   40    38    39    1
   41    38    40    1
   42    38    41    1
   43    41    42    1
   44    43    44    1
   45    43    45    1
   46    43    46    1
   47    46    47    1
   48    46    48    1
   49    48    49    1
   50    46    50    1
   51    50    51    1
   52    50    52    1
   53    52    53    1
   54    24    54    1
   55    50    54    1
   56    54    55    1
   57    54    56    1
   58    56    57    1
   59    43    58    1
   60    56    58    1
   61    56    59    1
   62    59    60    1
   63    59    61    1
   64    59    62    1
   65    62    63    1
   66    64    65    1
   67    64    66    1
   68    64    67    1
   69    67    68    1
   70    67    69    1
   71    69    70    1
   72    67    71    1
   73    71    72    1
   74    71    73    1
   75    73    74    1
   76    45    75    1
   77    71    75    1
   78    75    76    1
   79    75    77    1
   80    77    78    1
   81    64    79    1
   82    77    79    1
   83    77    80    1
   84    80    81    1
   85    80    82    1
   86    80    83    1
   87    83    84    1
   88    85    86    1
   89    85    87    1
   90    85    88    1
   91    88    89    1
   92    88    90    1
   93    90    91    1
   94    88    92    1
   95    92    93    1
   96    92    94    1
   97    94    95    1
   98    66    96    1
   99    92    96    1
  100    96    97    1
  101    96    98    1
  102    98    99    1
  103    85   100    1
  104    98   100    1
  105    98   101    1
  106   101   102    1
  107   101   103    1
  108   101   104    1
  109   104   105    1
  110   106   107    1
  111    12   108    1
  112   106   108    1
  113   106   109    1
  114   109   110    1
  115   109   111    1
  116   111   112    1
  117   109   113    1
  118   113   114    1
  119   113   115    1
  120   115   116    1
  121    87   117    1
  122   113   117    1
  123   117   118    1
  124   117   119    1
  125   119   120    1
  126   106   121    1
  127   119   121    1
  128   119   122    1
  129   122   123    1
  130   122   124    1
  131   122   125    1
  132   125   126    1
  133   127   128    1
  134   127   129    1
  135   127   130    1
  136   130   131    1
  137   130   132    1
  138   130   133    1
  139   133   134    1
  140   133   135    1
  141   133   136    1
  142   136   137    1
  143   136   138    1
  144   136   139    1
  145   139   140    1
  146   139   141    1
  147   139   142    1
  148   142   143    1
  149   142   144    1
  150   142   145    1
  151   145   146    1
  152   145   147    1
  153   145   148    1
  154   127   149    1
  155   149   150    1
  156   149   151    1
  157   149   152    1
@<TRIPOS>SUBSTRUCTURE
       1 MOL1            1 RESIDUE      1      MOL     
       2 MOL1          152 RESIDUE      1      MOL     
@<SCITEGIC>MOL_PROPERTY
feprocess Rank
SciTegic.value.IntegerValue
6

@<SCITEGIC>MOL_PROPERTY
Conf_Id
SciTegic.value.IntegerValue
830

@<SCITEGIC>MOL_PROPERTY
Probability
SciTegic.value.DoubleValue
2.48

@<SCITEGIC>MOL_PROPERTY
G
SciTegic.value.DoubleValue
606.307

@<SCITEGIC>MOL_PROPERTY
E
SciTegic.value.DoubleValue
401.726

@<SCITEGIC>MOL_PROPERTY
-TS
SciTegic.value.DoubleValue
204.580

@<SCITEGIC>MOL_PROPERTY
U+W
SciTegic.value.DoubleValue
267.590

@<SCITEGIC>MOL_PROPERTY
U
SciTegic.value.DoubleValue
345.639

@<SCITEGIC>MOL_PROPERTY
W
SciTegic.value.DoubleValue
-78.049

@<SCITEGIC>MOL_PROPERTY
W(PB)
SciTegic.value.DoubleValue
-84.256

@<SCITEGIC>MOL_PROPERTY
W(SA)
SciTegic.value.DoubleValue
6.207

@<SCITEGIC>MOL_PROPERTY
Valence
SciTegic.value.DoubleValue
147.229

@<SCITEGIC>MOL_PROPERTY
Coulomb
SciTegic.value.DoubleValue
224.755

@<SCITEGIC>MOL_PROPERTY
VdW
SciTegic.value.DoubleValue
-26.344

@<SCITEGIC>MOL_PROPERTY
VdW6
SciTegic.value.DoubleValue
-185.255

@<SCITEGIC>MOL_PROPERTY
VdW12
SciTegic.value.DoubleValue
158.911

@<SCITEGIC>MOL_PROPERTY
Bond
SciTegic.value.DoubleValue
4.800

@<SCITEGIC>MOL_PROPERTY
Angle
SciTegic.value.DoubleValue
12.023

@<SCITEGIC>MOL_PROPERTY
Pdih
SciTegic.value.DoubleValue
130.405

@<SCITEGIC>MOL_PROPERTY
Idih
SciTegic.value.DoubleValue
0.000

@<SCITEGIC>MOL_PROPERTY
Tether
SciTegic.value.DoubleValue
0.000

@<TRIPOS>MOLECULE
CD_guest-s12_fast_vm2_rndm.mol2 : feprocess host+ligand conformer 7
         152         157           2
SMALL
USER_CHARGES
 
@<TRIPOS>ATOM
       1    C1      16.249259   15.447125   21.747908 C.3        1 MOL1         0.2972
       2    H1      15.205609   15.271923   22.039182 H          1 MOL1         0.0751
       3    O1      16.408990   16.723029   21.096228 O.3        1 MOL1        -0.3740
       4    C2      17.170434   15.387612   22.994395 C.3        1 MOL1         0.1003
       5    H2      17.049053   14.390620   23.437702 H          1 MOL1         0.0783
       6    O2      16.821307   16.383012   23.969752 O.3        1 MOL1        -0.5519
       7    H3      15.902205   16.682475   23.767896 H          1 MOL1         0.3769
       8    C3      18.650950   15.560457   22.593376 C.3        1 MOL1         0.1053
       9    H4      18.771194   16.579971   22.210791 H          1 MOL1         0.0783
      10    O3      19.465113   15.374341   23.754865 O.3        1 MOL1        -0.5519
      11    H5      18.962574   15.815542   24.476764 H          1 MOL1         0.3769
      12    C4      19.063208   14.580446   21.468447 C.3        1 MOL1         0.1018
      13    H6      19.144909   13.570501   21.891035 H          1 MOL1         0.0783
      14    C5      18.034550   14.576852   20.302878 C.3        1 MOL1         0.1043
      15    H7      18.111740   15.536786   19.775595 H          1 MOL1         0.0783
      16    O4      16.688783   14.426664   20.825455 O.3        1 MOL1        -0.3740
      17    C6      18.282871   13.458762   19.262226 C.3        1 MOL1         0.0138
      18    H8      19.185419   13.710831   18.689189 H          1 MOL1         0.0794
      19    H9      17.441659   13.444524   18.556298 H          1 MOL1         0.0794
      20    O5      18.440918   12.173138   19.875554 O.3        1 MOL1        -0.5486
      21    H10     18.506704   11.506268   19.157549 H          1 MOL1         0.3769
      22    C7      14.541237   20.323257   20.544684 C.3        1 MOL1         0.2972
      23    H11     13.923933   21.198247   20.303579 H          1 MOL1         0.0751
      24    O6      15.910259   20.696519   20.823893 O.3        1 MOL1        -0.3740
      25    C8      13.945259   19.512619   21.725324 C.3        1 MOL1         0.1003
      26    H12     12.998388   19.084205   21.371019 H          1 MOL1         0.0783
      27    O7      13.668023   20.331622   22.868787 O.3        1 MOL1        -0.5519
      28    H13     14.537650   20.674164   23.193552 H          1 MOL1         0.3769
      29    C9      14.884978   18.336978   22.089052 C.3        1 MOL1         0.1053
      30    H14     15.829802   18.755009   22.462654 H          1 MOL1         0.0783
      31    O8      14.270602   17.543875   23.110563 O.3        1 MOL1        -0.5519
      32    H15     13.845565   18.193750   23.715340 H          1 MOL1         0.3769
      33    C10     15.197567   17.463686   20.840847 C.3        1 MOL1         0.1018
      34    H16     14.348706   16.793853   20.654878 H          1 MOL1         0.0783
      35    C11     15.477977   18.292928   19.554680 C.3        1 MOL1         0.1043
      36    H17     16.496999   18.688356   19.633161 H          1 MOL1         0.0783
      37    O9      14.562472   19.409913   19.429279 O.3        1 MOL1        -0.3740
      38    C12     15.412062   17.450066   18.256636 C.3        1 MOL1         0.0138
      39    H18     16.251133   16.741284   18.254430 H          1 MOL1         0.0794
      40    H19     15.551467   18.122422   17.399737 H          1 MOL1         0.0794
      41    O10     14.176900   16.736462   18.120672 O.3        1 MOL1        -0.5486
      42    H20     14.210370   15.962456   18.722359 H          1 MOL1         0.3769
      43    C13     18.513611   23.650876   22.046262 C.3        1 MOL1         0.2972
      44    H21     18.987258   24.569741   22.414185 H          1 MOL1         0.0751
      45    O11     19.484358   22.741846   21.492162 O.3        1 MOL1        -0.3740
      46    C14     17.776530   22.939737   23.206662 C.3        1 MOL1         0.1003
      47    H22     17.045117   23.653322   23.608256 H          1 MOL1         0.0783
      48    O12     18.692318   22.552384   24.249480 O.3        1 MOL1        -0.5519
      49    H23     19.468613   23.160017   24.183135 H          1 MOL1         0.3769
      50    C15     17.015077   21.694194   22.703878 C.3        1 MOL1         0.1053
      51    H24     17.760584   20.940086   22.426641 H          1 MOL1         0.0783
      52    O13     16.199818   21.210043   23.772633 O.3        1 MOL1        -0.5519
      53    H25     16.729587   21.351040   24.586217 H          1 MOL1         0.3769
      54    C16     16.150385   21.974320   21.448694 C.3        1 MOL1         0.1018
      55    H26     15.219484   22.470097   21.754361 H          1 MOL1         0.0783
      56    C17     16.897047   22.836429   20.392615 C.3        1 MOL1         0.1043
      57    H27     17.658470   22.203893   19.919154 H          1 MOL1         0.0783
      58    O14     17.550656   23.967458   21.019676 O.3        1 MOL1        -0.3740
      59    C18     15.974073   23.359922   19.266465 C.3        1 MOL1         0.0138
      60    H28     15.671577   22.508687   18.641495 H          1 MOL1         0.0794
      61    H29     16.550563   24.044318   18.629717 H          1 MOL1         0.0794
      62    O15     14.811136   24.019144   19.782916 O.3        1 MOL1        -0.5486
      63    H30     14.312459   24.385296   19.020086 H          1 MOL1         0.3769
      64    C19     23.615322   22.631680   20.926640 C.3        1 MOL1         0.2972
      65    H31     24.655741   22.843156   20.647625 H          1 MOL1         0.0751
      66    O16     23.436676   21.258647   21.328279 O.3        1 MOL1        -0.3740
      67    C20     23.146680   23.544378   22.091635 C.3        1 MOL1         0.1003
      68    H32     23.197080   24.581112   21.734062 H          1 MOL1         0.0783
      69    O17     23.992924   23.408409   23.243535 O.3        1 MOL1        -0.5519
      70    H33     24.047419   22.443700   23.462684 H          1 MOL1         0.3769
      71    C21     21.672766   23.237811   22.458506 C.3        1 MOL1         0.1053
      72    H34     21.630747   22.214547   22.850524 H          1 MOL1         0.0783
      73    O18     21.231934   24.152994   23.467942 O.3        1 MOL1        -0.5519
      74    H35     21.992639   24.232498   24.087030 H          1 MOL1         0.3769
      75    C22     20.769043   23.321818   21.196522 C.3        1 MOL1         0.1018
      76    H36     20.673145   24.374341   20.899805 H          1 MOL1         0.0783
      77    C23     21.352109   22.515020   20.005771 C.3        1 MOL1         0.1043
      78    H37     21.293414   21.447860   20.251125 H          1 MOL1         0.0783
      79    O19     22.739406   22.878558   19.804279 O.3        1 MOL1        -0.3740
      80    C24     20.578076   22.714105   18.678468 C.3        1 MOL1         0.0138
      81    H38     19.665006   22.107444   18.716703 H          1 MOL1         0.0794
      82    H39     21.189890   22.325103   17.853746 H          1 MOL1         0.0794
      83    O20     20.229457   24.081883   18.433645 O.3        1 MOL1        -0.5486
      84    H40     19.533371   24.328353   19.081137 H          1 MOL1         0.3769
      85    C25     25.216568   17.638216   21.924696 C.3        1 MOL1         0.2972
      86    H41     25.849015   16.755713   22.086044 H          1 MOL1         0.0751
      87    O21     23.845593   17.280765   21.662506 O.3        1 MOL1        -0.3740
      88    C26     25.238897   18.543728   23.176928 C.3        1 MOL1         0.1003
      89    H42     26.265370   18.909871   23.309459 H          1 MOL1         0.0783
      90    O22     24.838507   17.807146   24.343858 O.3        1 MOL1        -0.5519
      91    H43     24.307978   17.032045   24.032358 H          1 MOL1         0.3769
      92    C27     24.313290   19.761466   22.965404 C.3        1 MOL1         0.1053
      93    H44     23.285595   19.387160   22.910542 H          1 MOL1         0.0783
      94    O23     24.434074   20.651768   24.077799 O.3        1 MOL1        -0.5519
      95    H45     24.423542   20.067507   24.869193 H          1 MOL1         0.3769
      96    C28     24.623826   20.505838   21.641398 C.3        1 MOL1         0.1018
      97    H46     25.496932   21.152653   21.800133 H          1 MOL1         0.0783
      98    C29     24.867218   19.550890   20.434213 C.3        1 MOL1         0.1043
      99    H47     23.888961   19.177932   20.106199 H          1 MOL1         0.0783
     100    O24     25.694002   18.417813   20.809460 O.3        1 MOL1        -0.3740
     101    C30     25.514119   20.250781   19.215562 C.3        1 MOL1         0.0138
     102    H48     24.776098   20.933477   18.772902 H          1 MOL1         0.0794
     103    H49     25.750703   19.490642   18.458890 H          1 MOL1         0.0794
     104    O25     26.694034   20.979061   19.576381 O.3        1 MOL1        -0.5486
     105    H50     27.091391   21.331595   18.750239 H          1 MOL1         0.3769
     106    C31     21.370442   14.073329   20.760211 C.3        1 MOL1         0.2972
     107    H51     20.957450   13.107716   20.441719 H          1 MOL1         0.0751
     108    O26     20.322609   15.054014   20.942198 O.3        1 MOL1        -0.3740
     109    C32     22.206182   13.919368   22.064677 C.3        1 MOL1         0.1003
     110    H52     23.032895   13.235073   21.833374 H          1 MOL1         0.0783
     111    O27     21.441858   13.363875   23.144464 O.3        1 MOL1        -0.5519
     112    H53     20.745982   14.030461   23.372602 H          1 MOL1         0.3769
     113    C33     22.820789   15.276361   22.482963 C.3        1 MOL1         0.1053
     114    H54     22.001066   15.953180   22.758180 H          1 MOL1         0.0783
     115    O28     23.690796   15.092142   23.604278 O.3        1 MOL1        -0.5519
     116    H55     23.206148   14.487688   24.209911 H          1 MOL1         0.3769
     117    C34     23.605261   15.909738   21.309007 C.3        1 MOL1         0.1018
     118    H56     24.535991   15.346331   21.161107 H          1 MOL1         0.0783
     119    C35     22.790543   15.912039   19.988681 C.3        1 MOL1         0.1043
     120    H57     21.956090   16.608116   20.114363 H          1 MOL1         0.0783
     121    O29     22.266235   14.583178   19.745045 O.3        1 MOL1        -0.3740
     122    C36     23.578874   16.388633   18.740312 C.3        1 MOL1         0.0138
     123    H58     23.448631   17.473675   18.641192 H          1 MOL1         0.0794
     124    H59     23.129892   15.932723   17.847769 H          1 MOL1         0.0794
     125    O30     24.977162   16.082829   18.798794 O.3        1 MOL1        -0.5486
     126    H60     25.389259   16.729275   19.417190 H          1 MOL1         0.3769
     127    N1      18.816214   19.646889   25.028464 N.4        1 MOL1        -0.4857
     128    H1      18.695868   20.661111   24.837813 H          1 MOL1         0.3650
     129    H2      19.630842   19.583160   25.656375 H          1 MOL1         0.3650
     130    C1      19.097206   18.914108   23.734191 C.3        1 MOL1         0.0209
     131    H3      18.206536   18.984789   23.104985 H          1 MOL1         0.0967
     132    H4      19.268576   17.862380   23.972895 H          1 MOL1         0.0967
     133    C2      20.316987   19.491477   22.999640 C.3        1 MOL1        -0.1378
     134    H5      20.161017   20.561594   22.827431 H          1 MOL1         0.0993
     135    H6      21.190731   19.404264   23.657200 H          1 MOL1         0.0993
     136    C3      20.620563   18.796368   21.654382 C.3        1 MOL1        -0.1338
     137    H7      20.750671   17.718862   21.815910 H          1 MOL1         0.0993
     138    H8      21.586172   19.169346   21.288723 H          1 MOL1         0.0993
     139    C4      19.541777   19.047211   20.572161 C.3        1 MOL1        -0.1338
     140    H9      18.602209   18.550936   20.850005 H          1 MOL1         0.0993
     141    H10     19.322930   20.121672   20.514623 H          1 MOL1         0.0993
     142    C5      20.016018   18.543564   19.188870 C.3        1 MOL1        -0.1313
     143    H11     20.130171   17.451498   19.213102 H          1 MOL1         0.0993
     144    H12     21.005860   18.964846   18.964391 H          1 MOL1         0.0993
     145    C6      19.048365   18.919338   18.048923 C.3        1 MOL1        -0.2328
     146    H13     18.102876   18.378533   18.145017 H          1 MOL1         0.1004
     147    H14     18.832370   19.994710   18.040679 H          1 MOL1         0.1004
     148    H15     19.480151   18.654697   17.074983 H          1 MOL1         0.1004
     149    C7      17.583859   19.051752   25.694678 C.3        1 MOL1        -0.0781
     150    H16     17.771060   17.998623   25.916171 H          1 MOL1         0.0978
     151    H17     17.375628   19.594766   26.618867 H          1 MOL1         0.0978
     152    H18     16.732871   19.132280   25.014534 H          1 MOL1         0.0978
@<TRIPOS>BOND
    1     1     2    1
    2     1     3    1
    3     1     4    1
    4     4     5    1
    5     4     6    1
    6     6     7    1
    7     4     8    1
    8     8     9    1
    9     8    10    1
   10    10    11    1
   11     8    12    1
   12    12    13    1
   13    12    14    1
   14    14    15    1
   15     1    16    1
   16    14    16    1
   17    14    17    1
   18    17    18    1
   19    17    19    1
   20    17    20    1
   21    20    21    1
   22    22    23    1
   23    22    24    1
   24    22    25    1
   25    25    26    1
   26    25    27    1
   27    27    28    1
   28    25    29    1
   29    29    30    1
   30    29    31    1
   31    31    32    1
   32     3    33    1
   33    29    33    1
   34    33    34    1
   35    33    35    1
   36    35    36    1
   37    22    37    1
   38    35    37    1
   39    35    38    1
   40    38    39    1
   41    38    40    1
   42    38    41    1
   43    41    42    1
   44    43    44    1
   45    43    45    1
   46    43    46    1
   47    46    47    1
   48    46    48    1
   49    48    49    1
   50    46    50    1
   51    50    51    1
   52    50    52    1
   53    52    53    1
   54    24    54    1
   55    50    54    1
   56    54    55    1
   57    54    56    1
   58    56    57    1
   59    43    58    1
   60    56    58    1
   61    56    59    1
   62    59    60    1
   63    59    61    1
   64    59    62    1
   65    62    63    1
   66    64    65    1
   67    64    66    1
   68    64    67    1
   69    67    68    1
   70    67    69    1
   71    69    70    1
   72    67    71    1
   73    71    72    1
   74    71    73    1
   75    73    74    1
   76    45    75    1
   77    71    75    1
   78    75    76    1
   79    75    77    1
   80    77    78    1
   81    64    79    1
   82    77    79    1
   83    77    80    1
   84    80    81    1
   85    80    82    1
   86    80    83    1
   87    83    84    1
   88    85    86    1
   89    85    87    1
   90    85    88    1
   91    88    89    1
   92    88    90    1
   93    90    91    1
   94    88    92    1
   95    92    93    1
   96    92    94    1
   97    94    95    1
   98    66    96    1
   99    92    96    1
  100    96    97    1
  101    96    98    1
  102    98    99    1
  103    85   100    1
  104    98   100    1
  105    98   101    1
  106   101   102    1
  107   101   103    1
  108   101   104    1
  109   104   105    1
  110   106   107    1
  111    12   108    1
  112   106   108    1
  113   106   109    1
  114   109   110    1
  115   109   111    1
  116   111   112    1
  117   109   113    1
  118   113   114    1
  119   113   115    1
  120   115   116    1
  121    87   117    1
  122   113   117    1
  123   117   118    1
  124   117   119    1
  125   119   120    1
  126   106   121    1
  127   119   121    1
  128   119   122    1
  129   122   123    1
  130   122   124    1
  131   122   125    1
  132   125   126    1
  133   127   128    1
  134   127   129    1
  135   127   130    1
  136   130   131    1
  137   130   132    1
  138   130   133    1
  139   133   134    1
  140   133   135    1
  141   133   136    1
  142   136   137    1
  143   136   138    1
  144   136   139    1
  145   139   140    1
  146   139   141    1
  147   139   142    1
  148   142   143    1
  149   142   144    1
  150   142   145    1
  151   145   146    1
  152   145   147    1
  153   145   148    1
  154   127   149    1
  155   149   150    1
  156   149   151    1
  157   149   152    1
@<TRIPOS>SUBSTRUCTURE
       1 MOL1            1 RESIDUE      1      MOL     
       2 MOL1          152 RESIDUE      1      MOL     
@<SCITEGIC>MOL_PROPERTY
feprocess Rank
SciTegic.value.IntegerValue
7

@<SCITEGIC>MOL_PROPERTY
Conf_Id
SciTegic.value.IntegerValue
847

@<SCITEGIC>MOL_PROPERTY
Probability
SciTegic.value.DoubleValue
2.09

@<SCITEGIC>MOL_PROPERTY
G
SciTegic.value.DoubleValue
606.407

@<SCITEGIC>MOL_PROPERTY
E
SciTegic.value.DoubleValue
402.175

@<SCITEGIC>MOL_PROPERTY
-TS
SciTegic.value.DoubleValue
204.231

@<SCITEGIC>MOL_PROPERTY
U+W
SciTegic.value.DoubleValue
268.039

@<SCITEGIC>MOL_PROPERTY
U
SciTegic.value.DoubleValue
348.392

@<SCITEGIC>MOL_PROPERTY
W
SciTegic.value.DoubleValue
-80.353

@<SCITEGIC>MOL_PROPERTY
W(PB)
SciTegic.value.DoubleValue
-86.429

@<SCITEGIC>MOL_PROPERTY
W(SA)
SciTegic.value.DoubleValue
6.076

@<SCITEGIC>MOL_PROPERTY
Valence
SciTegic.value.DoubleValue
148.062

@<SCITEGIC>MOL_PROPERTY
Coulomb
SciTegic.value.DoubleValue
228.715

@<SCITEGIC>MOL_PROPERTY
VdW
SciTegic.value.DoubleValue
-28.385

@<SCITEGIC>MOL_PROPERTY
VdW6
SciTegic.value.DoubleValue
-187.543

@<SCITEGIC>MOL_PROPERTY
VdW12
SciTegic.value.DoubleValue
159.157

@<SCITEGIC>MOL_PROPERTY
Bond
SciTegic.value.DoubleValue
4.746

@<SCITEGIC>MOL_PROPERTY
Angle
SciTegic.value.DoubleValue
12.764

@<SCITEGIC>MOL_PROPERTY
Pdih
SciTegic.value.DoubleValue
130.551

@<SCITEGIC>MOL_PROPERTY
Idih
SciTegic.value.DoubleValue
0.000

@<SCITEGIC>MOL_PROPERTY
Tether
SciTegic.value.DoubleValue
0.000

@<TRIPOS>MOLECULE
CD_guest-s12_fast_vm2_rndm.mol2 : feprocess host+ligand conformer 8
         152         157           2
SMALL
USER_CHARGES
 
@<TRIPOS>ATOM
       1    C1      16.391131   15.240937   21.813070 C.3        1 MOL1         0.2972
       2    H1      15.316378   15.200128   22.033212 H          1 MOL1         0.0751
       3    O1      16.808543   16.569376   21.442186 O.3        1 MOL1        -0.3740
       4    C2      17.200557   14.805146   23.055147 C.3        1 MOL1         0.1003
       5    H2      16.927803   13.765120   23.277058 H          1 MOL1         0.0783
       6    O2      16.887758   15.631185   24.189413 O.3        1 MOL1        -0.5519
       7    H3      16.171628   16.252492   23.908751 H          1 MOL1         0.3769
       8    C3      18.715436   14.856038   22.756271 C.3        1 MOL1         0.1053
       9    H4      18.996339   15.902707   22.599730 H          1 MOL1         0.0783
      10    O3      19.424184   14.339904   23.884299 O.3        1 MOL1        -0.5519
      11    H5      18.979526   14.747463   24.662029 H          1 MOL1         0.3769
      12    C4      19.082024   14.080150   21.465211 C.3        1 MOL1         0.1018
      13    H6      19.110800   13.005406   21.688613 H          1 MOL1         0.0783
      14    C5      18.102700   14.366518   20.288933 C.3        1 MOL1         0.1043
      15    H7      18.332694   15.367195   19.902670 H          1 MOL1         0.0783
      16    O4      16.720813   14.347063   20.730044 O.3        1 MOL1        -0.3740
      17    C6      18.258750   13.378477   19.108757 C.3        1 MOL1         0.0138
      18    H8      19.223082   13.570804   18.618980 H          1 MOL1         0.0794
      19    H9      17.470990   13.584041   18.371501 H          1 MOL1         0.0794
      20    O5      18.196658   12.012809   19.538118 O.3        1 MOL1        -0.5486
      21    H10     18.230401   11.446332   18.736441 H          1 MOL1         0.3769
      22    C7      15.013757   20.280578   20.706209 C.3        1 MOL1         0.2972
      23    H11     14.325100   21.064817   20.365942 H          1 MOL1         0.0751
      24    O6      16.260497   20.832597   21.174172 O.3        1 MOL1        -0.3740
      25    C8      14.390251   19.454863   21.864986 C.3        1 MOL1         0.1003
      26    H12     13.466843   19.002297   21.480718 H          1 MOL1         0.0783
      27    O7      14.066784   20.286541   22.990252 O.3        1 MOL1        -0.5519
      28    H13     14.868303   20.828317   23.204292 H          1 MOL1         0.3769
      29    C9      15.338460   18.306585   22.294342 C.3        1 MOL1         0.1053
      30    H14     16.244868   18.750463   22.727382 H          1 MOL1         0.0783
      31    O8      14.686826   17.487142   23.270714 O.3        1 MOL1        -0.5519
      32    H15     14.236075   18.120742   23.873686 H          1 MOL1         0.3769
      33    C10     15.747688   17.461487   21.061489 C.3        1 MOL1         0.1018
      34    H16     14.868428   16.912309   20.699033 H          1 MOL1         0.0783
      35    C11     16.288621   18.350233   19.912708 C.3        1 MOL1         0.1043
      36    H17     17.216444   18.826375   20.249109 H          1 MOL1         0.0783
      37    O9      15.310410   19.375192   19.617439 O.3        1 MOL1        -0.3740
      38    C12     16.626641   17.571072   18.615097 C.3        1 MOL1         0.0138
      39    H18     17.658006   17.204487   18.692560 H          1 MOL1         0.0794
      40    H19     16.598317   18.268800   17.767592 H          1 MOL1         0.0794
      41    O10     15.747059   16.465003   18.375680 O.3        1 MOL1        -0.5486
      42    H20     15.916229   15.797039   19.078375 H          1 MOL1         0.3769
      43    C13     18.383287   24.309840   21.645878 C.3        1 MOL1         0.2972
      44    H21     18.774612   25.328812   21.758890 H          1 MOL1         0.0751
      45    O11     19.435756   23.337781   21.484138 O.3        1 MOL1        -0.3740
      46    C14     17.549181   23.915173   22.888278 C.3        1 MOL1         0.1003
      47    H22     16.679589   24.583893   22.932418 H          1 MOL1         0.0783
      48    O12     18.316004   24.055299   24.094725 O.3        1 MOL1        -0.5519
      49    H23     19.270156   23.947342   23.853710 H          1 MOL1         0.3769
      50    C15     17.033808   22.466569   22.742814 C.3        1 MOL1         0.1053
      51    H24     17.905672   21.803286   22.768536 H          1 MOL1         0.0783
      52    O13     16.166800   22.156197   23.837195 O.3        1 MOL1        -0.5519
      53    H25     16.618157   22.528932   24.627610 H          1 MOL1         0.3769
      54    C16     16.292254   22.255516   21.397636 C.3        1 MOL1         0.1018
      55    H26     15.284052   22.680612   21.491525 H          1 MOL1         0.0783
      56    C17     17.030195   22.887994   20.179999 C.3        1 MOL1         0.1043
      57    H27     17.887784   22.246964   19.938157 H          1 MOL1         0.0783
      58    O14     17.515286   24.218592   20.498066 O.3        1 MOL1        -0.3740
      59    C18     16.157349   22.976830   18.905236 C.3        1 MOL1         0.0138
      60    H28     16.010398   21.962150   18.511099 H          1 MOL1         0.0794
      61    H29     16.706798   23.545934   18.143395 H          1 MOL1         0.0794
      62    O15     14.886336   23.586732   19.162043 O.3        1 MOL1        -0.5486
      63    H30     14.421149   23.680192   18.302110 H          1 MOL1         0.3769
      64    C19     23.496384   22.788946   20.941147 C.3        1 MOL1         0.2972
      65    H31     24.568082   22.888328   20.726780 H          1 MOL1         0.0751
      66    O16     23.115803   21.398693   21.060620 O.3        1 MOL1        -0.3740
      67    C20     23.109782   23.576190   22.225739 C.3        1 MOL1         0.1003
      68    H32     23.321542   24.634780   22.026180 H          1 MOL1         0.0783
      69    O17     23.868892   23.166849   23.372571 O.3        1 MOL1        -0.5519
      70    H33     23.592163   22.238595   23.577980 H          1 MOL1         0.3769
      71    C21     21.594997   23.442443   22.506398 C.3        1 MOL1         0.1053
      72    H34     21.379609   22.389908   22.734969 H          1 MOL1         0.0783
      73    O18     21.238046   24.262944   23.622725 O.3        1 MOL1        -0.5519
      74    H35     21.952778   24.122980   24.283679 H          1 MOL1         0.3769
      75    C22     20.761897   23.849182   21.267221 C.3        1 MOL1         0.1018
      76    H36     20.779730   24.942376   21.171174 H          1 MOL1         0.0783
      77    C23     21.287369   23.202608   19.956875 C.3        1 MOL1         0.1043
      78    H37     21.046608   22.136413   19.993445 H          1 MOL1         0.0783
      79    O19     22.725672   23.357187   19.858555 O.3        1 MOL1        -0.3740
      80    C24     20.631377   23.760603   18.669531 C.3        1 MOL1         0.0138
      81    H38     19.619367   23.343864   18.582616 H          1 MOL1         0.0794
      82    H39     21.203965   23.400945   17.804315 H          1 MOL1         0.0794
      83    O20     20.564217   25.191105   18.653265 O.3        1 MOL1        -0.5486
      84    H40     19.770080   25.452948   19.167247 H          1 MOL1         0.3769
      85    C25     24.626741   17.628557   22.045492 C.3        1 MOL1         0.2972
      86    H41     25.261730   16.811100   22.409779 H          1 MOL1         0.0751
      87    O21     23.515073   17.127743   21.273811 O.3        1 MOL1        -0.3740
      88    C26     24.092851   18.465257   23.239433 C.3        1 MOL1         0.1003
      89    H42     24.968419   18.834774   23.789096 H          1 MOL1         0.0783
      90    O22     23.278178   17.678210   24.123882 O.3        1 MOL1        -0.5519
      91    H43     23.572421   16.740455   24.032344 H          1 MOL1         0.3769
      92    C27     23.283336   19.685285   22.748046 C.3        1 MOL1         0.1053
      93    H44     22.374857   19.307386   22.269811 H          1 MOL1         0.0783
      94    O23     22.934976   20.490185   23.877839 O.3        1 MOL1        -0.5519
      95    H45     22.629263   19.841943   24.552001 H          1 MOL1         0.3769
      96    C28     24.063928   20.512051   21.696494 C.3        1 MOL1         0.1018
      97    H46     24.868944   21.060758   22.202491 H          1 MOL1         0.0783
      98    C29     24.670819   19.604802   20.591307 C.3        1 MOL1         0.1043
      99    H47     23.847194   19.202200   19.988754 H          1 MOL1         0.0783
     100    O24     25.396640   18.505068   21.195287 O.3        1 MOL1        -0.3740
     101    C30     25.626177   20.353889   19.631517 C.3        1 MOL1         0.0138
     102    H48     25.029294   21.022835   18.997052 H          1 MOL1         0.0794
     103    H49     26.106088   19.619272   18.971073 H          1 MOL1         0.0794
     104    O25     26.616535   21.112248   20.337001 O.3        1 MOL1        -0.5486
     105    H50     27.235258   21.486606   19.672551 H          1 MOL1         0.3769
     106    C31     21.405114   13.627559   20.762895 C.3        1 MOL1         0.2972
     107    H51     20.998649   12.635442   20.527498 H          1 MOL1         0.0751
     108    O26     20.361290   14.586653   21.038150 O.3        1 MOL1        -0.3740
     109    C32     22.382519   13.574164   21.963971 C.3        1 MOL1         0.1003
     110    H52     23.249899   12.980605   21.646282 H          1 MOL1         0.0783
     111    O27     21.795453   12.945373   23.111728 O.3        1 MOL1        -0.5519
     112    H53     20.985299   13.463124   23.349109 H          1 MOL1         0.3769
     113    C33     22.884713   14.998963   22.306090 C.3        1 MOL1         0.1053
     114    H54     22.026300   15.590211   22.654267 H          1 MOL1         0.0783
     115    O28     23.860198   14.902798   23.350138 O.3        1 MOL1        -0.5519
     116    H55     23.519171   14.200692   23.950446 H          1 MOL1         0.3769
     117    C34     23.485076   15.700478   21.051633 C.3        1 MOL1         0.1018
     118    H56     24.493090   15.305521   20.873066 H          1 MOL1         0.0783
     119    C35     22.627713   15.496486   19.769667 C.3        1 MOL1         0.1043
     120    H57     21.746683   16.141695   19.853709 H          1 MOL1         0.0783
     121    O29     22.176223   14.125189   19.650493 O.3        1 MOL1        -0.3740
     122    C36     23.362196   15.894737   18.465225 C.3        1 MOL1         0.0138
     123    H58     23.501695   16.983913   18.456850 H          1 MOL1         0.0794
     124    H59     22.717080   15.642996   17.613068 H          1 MOL1         0.0794
     125    O30     24.632014   15.246134   18.325709 O.3        1 MOL1        -0.5486
     126    H60     25.259241   15.681346   18.941674 H          1 MOL1         0.3769
     127    N1      21.003962   19.308968   17.562912 N.4        1 MOL1        -0.4857
     128    H1      20.184785   19.891400   17.334429 H          1 MOL1         0.3650
     129    H2      21.124657   18.687481   16.747989 H          1 MOL1         0.3650
     130    C1      20.729355   18.479336   18.805363 C.3        1 MOL1         0.0209
     131    H3      21.649117   17.949915   19.057901 H          1 MOL1         0.0967
     132    H4      19.962861   17.743445   18.549872 H          1 MOL1         0.0967
     133    C2      20.261680   19.300889   20.018393 C.3        1 MOL1        -0.1378
     134    H5      21.053629   20.001755   20.299121 H          1 MOL1         0.0993
     135    H6      19.383140   19.898761   19.741861 H          1 MOL1         0.0993
     136    C3      19.932337   18.424583   21.245631 C.3        1 MOL1        -0.1338
     137    H7      20.820299   17.853183   21.549134 H          1 MOL1         0.0993
     138    H8      19.161389   17.687659   20.989134 H          1 MOL1         0.0993
     139    C4      19.448066   19.311989   22.414676 C.3        1 MOL1        -0.1338
     140    H9      20.179259   20.110600   22.602245 H          1 MOL1         0.0993
     141    H10     18.513527   19.803914   22.122954 H          1 MOL1         0.0993
     142    C5      19.216305   18.524307   23.719389 C.3        1 MOL1        -0.1313
     143    H11     20.129797   17.978122   23.996065 H          1 MOL1         0.0993
     144    H12     18.426252   17.779789   23.566046 H          1 MOL1         0.0993
     145    C6      18.801670   19.457821   24.875444 C.3        1 MOL1        -0.2328
     146    H13     19.572414   20.215547   25.068577 H          1 MOL1         0.1004
     147    H14     18.651700   18.884436   25.799229 H          1 MOL1         0.1004
     148    H15     17.861459   19.975478   24.645728 H          1 MOL1         0.1004
     149    C7      22.249463   20.171419   17.739542 C.3        1 MOL1        -0.0781
     150    H16     23.110563   19.522981   17.912259 H          1 MOL1         0.0978
     151    H17     22.408535   20.757967   16.831963 H          1 MOL1         0.0978
     152    H18     22.115163   20.841908   18.590993 H          1 MOL1         0.0978
@<TRIPOS>BOND
    1     1     2    1
    2     1     3    1
    3     1     4    1
    4     4     5    1
    5     4     6    1
    6     6     7    1
    7     4     8    1
    8     8     9    1
    9     8    10    1
   10    10    11    1
   11     8    12    1
   12    12    13    1
   13    12    14    1
   14    14    15    1
   15     1    16    1
   16    14    16    1
   17    14    17    1
   18    17    18    1
   19    17    19    1
   20    17    20    1
   21    20    21    1
   22    22    23    1
   23    22    24    1
   24    22    25    1
   25    25    26    1
   26    25    27    1
   27    27    28    1
   28    25    29    1
   29    29    30    1
   30    29    31    1
   31    31    32    1
   32     3    33    1
   33    29    33    1
   34    33    34    1
   35    33    35    1
   36    35    36    1
   37    22    37    1
   38    35    37    1
   39    35    38    1
   40    38    39    1
   41    38    40    1
   42    38    41    1
   43    41    42    1
   44    43    44    1
   45    43    45    1
   46    43    46    1
   47    46    47    1
   48    46    48    1
   49    48    49    1
   50    46    50    1
   51    50    51    1
   52    50    52    1
   53    52    53    1
   54    24    54    1
   55    50    54    1
   56    54    55    1
   57    54    56    1
   58    56    57    1
   59    43    58    1
   60    56    58    1
   61    56    59    1
   62    59    60    1
   63    59    61    1
   64    59    62    1
   65    62    63    1
   66    64    65    1
   67    64    66    1
   68    64    67    1
   69    67    68    1
   70    67    69    1
   71    69    70    1
   72    67    71    1
   73    71    72    1
   74    71    73    1
   75    73    74    1
   76    45    75    1
   77    71    75    1
   78    75    76    1
   79    75    77    1
   80    77    78    1
   81    64    79    1
   82    77    79    1
   83    77    80    1
   84    80    81    1
   85    80    82    1
   86    80    83    1
   87    83    84    1
   88    85    86    1
   89    85    87    1
   90    85    88    1
   91    88    89    1
   92    88    90    1
   93    90    91    1
   94    88    92    1
   95    92    93    1
   96    92    94    1
   97    94    95    1
   98    66    96    1
   99    92    96    1
  100    96    97    1
  101    96    98    1
  102    98    99    1
  103    85   100    1
  104    98   100    1
  105    98   101    1
  106   101   102    1
  107   101   103    1
  108   101   104    1
  109   104   105    1
  110   106   107    1
  111    12   108    1
  112   106   108    1
  113   106   109    1
  114   109   110    1
  115   109   111    1
  116   111   112    1
  117   109   113    1
  118   113   114    1
  119   113   115    1
  120   115   116    1
  121    87   117    1
  122   113   117    1
  123   117   118    1
  124   117   119    1
  125   119   120    1
  126   106   121    1
  127   119   121    1
  128   119   122    1
  129   122   123    1
  130   122   124    1
  131   122   125    1
  132   125   126    1
  133   127   128    1
  134   127   129    1
  135   127   130    1
  136   130   131    1
  137   130   132    1
  138   130   133    1
  139   133   134    1
  140   133   135    1
  141   133   136    1
  142   136   137    1
  143   136   138    1
  144   136   139    1
  145   139   140    1
  146   139   141    1
  147   139   142    1
  148   142   143    1
  149   142   144    1
  150   142   145    1
  151   145   146    1
  152   145   147    1
  153   145   148    1
  154   127   149    1
  155   149   150    1
  156   149   151    1
  157   149   152    1
@<TRIPOS>SUBSTRUCTURE
       1 MOL1            1 RESIDUE      1      MOL     
       2 MOL1          152 RESIDUE      1      MOL     
@<SCITEGIC>MOL_PROPERTY
feprocess Rank
SciTegic.value.IntegerValue
8

@<SCITEGIC>MOL_PROPERTY
Conf_Id
SciTegic.value.IntegerValue
263

@<SCITEGIC>MOL_PROPERTY
Probability
SciTegic.value.DoubleValue
1.22

@<SCITEGIC>MOL_PROPERTY
G
SciTegic.value.DoubleValue
606.730

@<SCITEGIC>MOL_PROPERTY
E
SciTegic.value.DoubleValue
404.425

@<SCITEGIC>MOL_PROPERTY
-TS
SciTegic.value.DoubleValue
202.305

@<SCITEGIC>MOL_PROPERTY
U+W
SciTegic.value.DoubleValue
270.288

@<SCITEGIC>MOL_PROPERTY
U
SciTegic.value.DoubleValue
356.325

@<SCITEGIC>MOL_PROPERTY
W
SciTegic.value.DoubleValue
-86.037

@<SCITEGIC>MOL_PROPERTY
W(PB)
SciTegic.value.DoubleValue
-92.096

@<SCITEGIC>MOL_PROPERTY
W(SA)
SciTegic.value.DoubleValue
6.060

@<SCITEGIC>MOL_PROPERTY
Valence
SciTegic.value.DoubleValue
147.475

@<SCITEGIC>MOL_PROPERTY
Coulomb
SciTegic.value.DoubleValue
236.881

@<SCITEGIC>MOL_PROPERTY
VdW
SciTegic.value.DoubleValue
-28.031

@<SCITEGIC>MOL_PROPERTY
VdW6
SciTegic.value.DoubleValue
-183.133

@<SCITEGIC>MOL_PROPERTY
VdW12
SciTegic.value.DoubleValue
155.102

@<SCITEGIC>MOL_PROPERTY
Bond
SciTegic.value.DoubleValue
4.709

@<SCITEGIC>MOL_PROPERTY
Angle
SciTegic.value.DoubleValue
12.162

@<SCITEGIC>MOL_PROPERTY
Pdih
SciTegic.value.DoubleValue
130.604

@<SCITEGIC>MOL_PROPERTY
Idih
SciTegic.value.DoubleValue
0.000

@<SCITEGIC>MOL_PROPERTY
Tether
SciTegic.value.DoubleValue
0.000

