@<TRIPOS>MOLECULE
CD_guest-s21_fast_vm2_rndm.mol2 : feprocess host+ligand conformer 1
         148         153           2
SMALL
USER_CHARGES
 
@<TRIPOS>ATOM
       1    C1      16.280023   15.105415   20.324020 C.3        1 MOL1         0.2972
       2    H1      15.286119   15.015114   19.867477 H          1 MOL1         0.0751
       3    O1      16.574593   16.476914   20.673271 O.3        1 MOL1        -0.3740
       4    C2      16.412995   14.183618   21.565003 C.3        1 MOL1         0.1003
       5    H2      16.304095   13.152440   21.204397 H          1 MOL1         0.0783
       6    O2      15.393180   14.435555   22.543030 O.3        1 MOL1        -0.5519
       7    H3      15.573628   15.336984   22.911275 H          1 MOL1         0.3769
       8    C3      17.818206   14.311576   22.201559 C.3        1 MOL1         0.1053
       9    H4      17.896080   15.304674   22.665102 H          1 MOL1         0.0783
      10    O3      17.962183   13.294361   23.198135 O.3        1 MOL1        -0.5519
      11    H5      17.173611   13.380224   23.776264 H          1 MOL1         0.3769
      12    C4      18.958551   14.183631   21.155517 C.3        1 MOL1         0.1018
      13    H6      19.132238   13.116795   20.965554 H          1 MOL1         0.0783
      14    C5      18.661072   14.909118   19.809858 C.3        1 MOL1         0.1043
      15    H7      18.786222   15.981333   19.980532 H          1 MOL1         0.0783
      16    O4      17.294030   14.662391   19.395690 O.3        1 MOL1        -0.3740
      17    C6      19.611411   14.545904   18.637200 C.3        1 MOL1         0.0138
      18    H8      20.408467   15.297899   18.590433 H          1 MOL1         0.0794
      19    H9      19.051718   14.629178   17.696003 H          1 MOL1         0.0794
      20    O5      20.189323   13.239084   18.747014 O.3        1 MOL1        -0.5486
      21    H10     20.832008   13.266491   19.494249 H          1 MOL1         0.3769
      22    C7      14.965892   20.157866   21.684539 C.3        1 MOL1         0.2972
      23    H11     14.323189   20.996568   21.981385 H          1 MOL1         0.0751
      24    O6      16.254907   20.613939   21.228921 O.3        1 MOL1        -0.3740
      25    C8      15.162656   19.186595   22.875795 C.3        1 MOL1         0.1003
      26    H12     14.168866   18.809241   23.149887 H          1 MOL1         0.0783
      27    O7      15.741159   19.846581   24.012861 O.3        1 MOL1        -0.5519
      28    H13     15.767026   20.812301   23.807135 H          1 MOL1         0.3769
      29    C9      16.034913   17.979135   22.466266 C.3        1 MOL1         0.1053
      30    H14     17.049663   18.346579   22.261826 H          1 MOL1         0.0783
      31    O8      16.061664   17.051000   23.555231 O.3        1 MOL1        -0.5519
      32    H15     16.255390   17.607165   24.343439 H          1 MOL1         0.3769
      33    C10     15.500173   17.294452   21.181932 C.3        1 MOL1         0.1018
      34    H16     14.613957   16.699985   21.438766 H          1 MOL1         0.0783
      35    C11     15.138960   18.319740   20.068830 C.3        1 MOL1         0.1043
      36    H17     16.074273   18.722872   19.663053 H          1 MOL1         0.0783
      37    O9      14.352182   19.411671   20.611945 O.3        1 MOL1        -0.3740
      38    C12     14.362715   17.695693   18.884701 C.3        1 MOL1         0.0138
      39    H18     15.050238   17.051558   18.319989 H          1 MOL1         0.0794
      40    H19     14.044310   18.502461   18.210997 H          1 MOL1         0.0794
      41    O10     13.229981   16.933063   19.320025 O.3        1 MOL1        -0.5486
      42    H20     12.745130   16.635938   18.519316 H          1 MOL1         0.3769
      43    C13     18.497148   24.123209   21.092721 C.3        1 MOL1         0.2972
      44    H21     18.864217   25.144841   20.930461 H          1 MOL1         0.0751
      45    O11     19.557047   23.225479   21.469752 O.3        1 MOL1        -0.3740
      46    C14     17.434015   24.086739   22.218961 C.3        1 MOL1         0.1003
      47    H22     16.600390   24.726543   21.901417 H          1 MOL1         0.0783
      48    O12     17.969872   24.591166   23.453034 O.3        1 MOL1        -0.5519
      49    H23     18.847969   24.154132   23.595374 H          1 MOL1         0.3769
      50    C15     16.884974   22.650495   22.415727 C.3        1 MOL1         0.1053
      51    H24     17.695675   22.024323   22.813736 H          1 MOL1         0.0783
      52    O13     15.803631   22.700146   23.352437 O.3        1 MOL1        -0.5519
      53    H25     16.108019   23.317956   24.055770 H          1 MOL1         0.3769
      54    C16     16.413605   22.037577   21.067730 C.3        1 MOL1         0.1018
      55    H26     15.471715   22.514182   20.767727 H          1 MOL1         0.0783
      56    C17     17.460552   22.233282   19.937771 C.3        1 MOL1         0.1043
      57    H27     18.329446   21.603007   20.163138 H          1 MOL1         0.0783
      58    O14     17.879762   23.618027   19.890010 O.3        1 MOL1        -0.3740
      59    C18     16.949413   21.821580   18.534056 C.3        1 MOL1         0.0138
      60    H28     16.924528   20.725909   18.476437 H          1 MOL1         0.0794
      61    H29     17.674703   22.166321   17.785263 H          1 MOL1         0.0794
      62    O15     15.648550   22.345382   18.239565 O.3        1 MOL1        -0.5486
      63    H30     15.000458   21.832821   18.769184 H          1 MOL1         0.3769
      64    C19     23.624829   22.832615   21.846122 C.3        1 MOL1         0.2972
      65    H31     24.711863   22.940562   21.952850 H          1 MOL1         0.0751
      66    O16     23.246096   21.465844   21.582986 O.3        1 MOL1        -0.3740
      67    C20     22.914129   23.294312   23.141677 C.3        1 MOL1         0.1003
      68    H32     23.137534   24.360209   23.279569 H          1 MOL1         0.0783
      69    O17     23.391546   22.560095   24.280369 O.3        1 MOL1        -0.5519
      70    H33     23.849688   21.754721   23.934045 H          1 MOL1         0.3769
      71    C21     21.382315   23.140950   23.001395 C.3        1 MOL1         0.1053
      72    H34     21.159793   22.070472   22.943076 H          1 MOL1         0.0783
      73    O18     20.735221   23.704845   24.146754 O.3        1 MOL1        -0.5519
      74    H35     21.234076   23.349265   24.915917 H          1 MOL1         0.3769
      75    C22     20.849493   23.810765   21.710991 C.3        1 MOL1         0.1018
      76    H36     20.789778   24.893674   21.882044 H          1 MOL1         0.0783
      77    C23     21.723213   23.509639   20.460158 C.3        1 MOL1         0.1043
      78    H37     21.531544   22.471760   20.162053 H          1 MOL1         0.0783
      79    O19     23.132117   23.657101   20.769546 O.3        1 MOL1        -0.3740
      80    C24     21.390238   24.403109   19.241589 C.3        1 MOL1         0.0138
      81    H38     20.411875   24.100215   18.844693 H          1 MOL1         0.0794
      82    H39     22.133470   24.213516   18.455611 H          1 MOL1         0.0794
      83    O20     21.367249   25.795517   19.581031 O.3        1 MOL1        -0.5486
      84    H40     21.213086   26.301114   18.753392 H          1 MOL1         0.3769
      85    C25     24.795148   17.689490   20.826533 C.3        1 MOL1         0.2972
      86    H41     25.398417   16.829074   20.510001 H          1 MOL1         0.0751
      87    O21     23.470943   17.284881   21.228979 O.3        1 MOL1        -0.3740
      88    C26     25.483141   18.457800   21.987387 C.3        1 MOL1         0.1003
      89    H42     26.440167   18.832792   21.601895 H          1 MOL1         0.0783
      90    O22     25.742005   17.607747   23.114512 O.3        1 MOL1        -0.5519
      91    H43     24.867474   17.254208   23.418400 H          1 MOL1         0.3769
      92    C27     24.631608   19.680311   22.407733 C.3        1 MOL1         0.1053
      93    H44     23.685071   19.310032   22.823580 H          1 MOL1         0.0783
      94    O23     25.332851   20.436141   23.400503 O.3        1 MOL1        -0.5519
      95    H45     25.707073   19.765041   24.014542 H          1 MOL1         0.3769
      96    C28     24.307645   20.577028   21.185920 C.3        1 MOL1         0.1018
      97    H46     25.211432   21.125416   20.889458 H          1 MOL1         0.0783
      98    C29     23.793323   19.759027   19.970086 C.3        1 MOL1         0.1043
      99    H47     22.777586   19.409738   20.197323 H          1 MOL1         0.0783
     100    O24     24.653488   18.615976   19.730841 O.3        1 MOL1        -0.3740
     101    C30     23.727184   20.589891   18.665886 C.3        1 MOL1         0.0138
     102    H48     22.941138   21.347472   18.775002 H          1 MOL1         0.0794
     103    H49     23.429650   19.926259   17.843201 H          1 MOL1         0.0794
     104    O25     24.975544   21.226759   18.363544 O.3        1 MOL1        -0.5486
     105    H50     24.864563   21.715825   17.519891 H          1 MOL1         0.3769
     106    C31     21.178878   13.957961   22.153704 C.3        1 MOL1         0.2972
     107    H51     20.797211   12.968531   22.436707 H          1 MOL1         0.0751
     108    O26     20.109782   14.828324   21.735552 O.3        1 MOL1        -0.3740
     109    C32     21.917024   14.596483   23.358180 C.3        1 MOL1         0.1003
     110    H52     22.780769   13.959247   23.587248 H          1 MOL1         0.0783
     111    O27     21.055506   14.635596   24.506802 O.3        1 MOL1        -0.5519
     112    H53     21.125582   15.536174   24.914065 H          1 MOL1         0.3769
     113    C33     22.454442   15.998688   22.981316 C.3        1 MOL1         0.1053
     114    H54     21.595692   16.648844   22.774324 H          1 MOL1         0.0783
     115    O28     23.236021   16.539883   24.054639 O.3        1 MOL1        -0.5519
     116    H55     22.586628   16.852386   24.738558 H          1 MOL1         0.3769
     117    C34     23.320708   15.929409   21.699640 C.3        1 MOL1         0.1018
     118    H56     24.286487   15.471835   21.952497 H          1 MOL1         0.0783
     119    C35     22.631604   15.124469   20.561604 C.3        1 MOL1         0.1043
     120    H57     21.798134   15.735107   20.194206 H          1 MOL1         0.0783
     121    O29     22.114013   13.859612   21.056692 O.3        1 MOL1        -0.3740
     122    C36     23.557588   14.836407   19.355820 C.3        1 MOL1         0.0138
     123    H58     23.747086   15.781281   18.828528 H          1 MOL1         0.0794
     124    H59     23.029609   14.173921   18.656867 H          1 MOL1         0.0794
     125    O30     24.799766   14.246943   19.759401 O.3        1 MOL1        -0.5486
     126    H60     25.299164   14.017231   18.945698 H          1 MOL1         0.3769
     127    C1      20.083480   17.994902   25.490759 C.2        1 MOL1         0.6145
     128    O1      19.562854   18.545476   26.440554 O.co2      1 MOL1        -0.6735
     129    O2      21.026245   17.230441   25.584205 O.co2      1 MOL1        -0.6735
     130    C2      19.541932   18.290652   24.095787 C.3        1 MOL1        -0.1985
     131    H1      18.535975   18.712585   24.203731 H          1 MOL1         0.0740
     132    H2      19.439242   17.333640   23.573143 H          1 MOL1         0.0740
     133    C3      20.442380   19.271903   23.299587 C.3        1 MOL1        -0.1882
     134    H3      20.551446   20.186542   23.895659 H          1 MOL1         0.0742
     135    H4      21.450827   18.854442   23.195613 H          1 MOL1         0.0742
     136    C4      19.887440   19.643561   21.903610 C.3        1 MOL1        -0.1880
     137    H5      20.518190   20.433205   21.479217 H          1 MOL1         0.0742
     138    H6      18.883464   20.070677   22.018091 H          1 MOL1         0.0742
     139    C5      19.837435   18.451460   20.918787 C.3        1 MOL1        -0.1880
     140    H7      20.842711   18.033402   20.783445 H          1 MOL1         0.0742
     141    H8      19.224438   17.656158   21.357545 H          1 MOL1         0.0742
     142    C6      19.232563   18.824195   19.545419 C.3        1 MOL1        -0.1856
     143    H9      18.255013   19.291724   19.702501 H          1 MOL1         0.0742
     144    H10     19.045203   17.909944   18.969421 H          1 MOL1         0.0742
     145    C7      20.131730   19.750600   18.701014 C.3        1 MOL1        -0.2871
     146    H11     20.326827   20.700111   19.211539 H          1 MOL1         0.0754
     147    H12     19.652624   19.978344   17.740498 H          1 MOL1         0.0754
     148    H13     21.091199   19.264209   18.489693 H          1 MOL1         0.0754
@<TRIPOS>BOND
    1     1     2    1
    2     1     3    1
    3     1     4    1
    4     4     5    1
    5     4     6    1
    6     6     7    1
    7     4     8    1
    8     8     9    1
    9     8    10    1
   10    10    11    1
   11     8    12    1
   12    12    13    1
   13    12    14    1
   14    14    15    1
   15     1    16    1
   16    14    16    1
   17    14    17    1
   18    17    18    1
   19    17    19    1
   20    17    20    1
   21    20    21    1
   22    22    23    1
   23    22    24    1
   24    22    25    1
   25    25    26    1
   26    25    27    1
   27    27    28    1
   28    25    29    1
   29    29    30    1
   30    29    31    1
   31    31    32    1
   32     3    33    1
   33    29    33    1
   34    33    34    1
   35    33    35    1
   36    35    36    1
   37    22    37    1
   38    35    37    1
   39    35    38    1
   40    38    39    1
   41    38    40    1
   42    38    41    1
   43    41    42    1
   44    43    44    1
   45    43    45    1
   46    43    46    1
   47    46    47    1
   48    46    48    1
   49    48    49    1
   50    46    50    1
   51    50    51    1
   52    50    52    1
   53    52    53    1
   54    24    54    1
   55    50    54    1
   56    54    55    1
   57    54    56    1
   58    56    57    1
   59    43    58    1
   60    56    58    1
   61    56    59    1
   62    59    60    1
   63    59    61    1
   64    59    62    1
   65    62    63    1
   66    64    65    1
   67    64    66    1
   68    64    67    1
   69    67    68    1
   70    67    69    1
   71    69    70    1
   72    67    71    1
   73    71    72    1
   74    71    73    1
   75    73    74    1
   76    45    75    1
   77    71    75    1
   78    75    76    1
   79    75    77    1
   80    77    78    1
   81    64    79    1
   82    77    79    1
   83    77    80    1
   84    80    81    1
   85    80    82    1
   86    80    83    1
   87    83    84    1
   88    85    86    1
   89    85    87    1
   90    85    88    1
   91    88    89    1
   92    88    90    1
   93    90    91    1
   94    88    92    1
   95    92    93    1
   96    92    94    1
   97    94    95    1
   98    66    96    1
   99    92    96    1
  100    96    97    1
  101    96    98    1
  102    98    99    1
  103    85   100    1
  104    98   100    1
  105    98   101    1
  106   101   102    1
  107   101   103    1
  108   101   104    1
  109   104   105    1
  110   106   107    1
  111    12   108    1
  112   106   108    1
  113   106   109    1
  114   109   110    1
  115   109   111    1
  116   111   112    1
  117   109   113    1
  118   113   114    1
  119   113   115    1
  120   115   116    1
  121    87   117    1
  122   113   117    1
  123   117   118    1
  124   117   119    1
  125   119   120    1
  126   106   121    1
  127   119   121    1
  128   119   122    1
  129   122   123    1
  130   122   124    1
  131   122   125    1
  132   125   126    1
  133   127   128    1
  134   127   129    2
  135   127   130    1
  136   130   131    1
  137   130   132    1
  138   130   133    1
  139   133   134    1
  140   133   135    1
  141   133   136    1
  142   136   137    1
  143   136   138    1
  144   136   139    1
  145   139   140    1
  146   139   141    1
  147   139   142    1
  148   142   143    1
  149   142   144    1
  150   142   145    1
  151   145   146    1
  152   145   147    1
  153   145   148    1
@<TRIPOS>SUBSTRUCTURE
       1 MOL1            1 RESIDUE      1      MOL     
       2 MOL1          148 RESIDUE      1      MOL     
@<SCITEGIC>MOL_PROPERTY
feprocess Rank
SciTegic.value.IntegerValue
1

@<SCITEGIC>MOL_PROPERTY
Conf_Id
SciTegic.value.IntegerValue
5

@<SCITEGIC>MOL_PROPERTY
Probability
SciTegic.value.DoubleValue
36.94

@<SCITEGIC>MOL_PROPERTY
G
SciTegic.value.DoubleValue
506.792

@<SCITEGIC>MOL_PROPERTY
E
SciTegic.value.DoubleValue
313.859

@<SCITEGIC>MOL_PROPERTY
-TS
SciTegic.value.DoubleValue
192.933

@<SCITEGIC>MOL_PROPERTY
U+W
SciTegic.value.DoubleValue
183.299

@<SCITEGIC>MOL_PROPERTY
U
SciTegic.value.DoubleValue
265.999

@<SCITEGIC>MOL_PROPERTY
W
SciTegic.value.DoubleValue
-82.700

@<SCITEGIC>MOL_PROPERTY
W(PB)
SciTegic.value.DoubleValue
-88.789

@<SCITEGIC>MOL_PROPERTY
W(SA)
SciTegic.value.DoubleValue
6.089

@<SCITEGIC>MOL_PROPERTY
Valence
SciTegic.value.DoubleValue
153.052

@<SCITEGIC>MOL_PROPERTY
Coulomb
SciTegic.value.DoubleValue
139.855

@<SCITEGIC>MOL_PROPERTY
VdW
SciTegic.value.DoubleValue
-26.907

@<SCITEGIC>MOL_PROPERTY
VdW6
SciTegic.value.DoubleValue
-188.477

@<SCITEGIC>MOL_PROPERTY
VdW12
SciTegic.value.DoubleValue
161.570

@<SCITEGIC>MOL_PROPERTY
Bond
SciTegic.value.DoubleValue
4.922

@<SCITEGIC>MOL_PROPERTY
Angle
SciTegic.value.DoubleValue
14.255

@<SCITEGIC>MOL_PROPERTY
Pdih
SciTegic.value.DoubleValue
133.874

@<SCITEGIC>MOL_PROPERTY
Idih
SciTegic.value.DoubleValue
0.001

@<SCITEGIC>MOL_PROPERTY
Tether
SciTegic.value.DoubleValue
0.000

