@<TRIPOS>MOLECULE
CD_guest-s22_fast_vm2_rndm.mol2 : feprocess host+ligand conformer 1
         146         151           2
SMALL
USER_CHARGES
 
@<TRIPOS>ATOM
       1    C1      16.498207   15.308149   20.304666 C.3        1 MOL1         0.2972
       2    H1      15.492457   15.246345   19.870697 H          1 MOL1         0.0751
       3    O1      16.809223   16.658600   20.712445 O.3        1 MOL1        -0.3740
       4    C2      16.649609   14.324622   21.497759 C.3        1 MOL1         0.1003
       5    H2      16.485356   13.316791   21.094831 H          1 MOL1         0.0783
       6    O2      15.682025   14.567266   22.530761 O.3        1 MOL1        -0.5519
       7    H3      15.902551   15.449792   22.922525 H          1 MOL1         0.3769
       8    C3      18.081167   14.364047   22.085801 C.3        1 MOL1         0.1053
       9    H4      18.212512   15.323841   22.601892 H          1 MOL1         0.0783
      10    O3      18.220809   13.282929   23.013784 O.3        1 MOL1        -0.5519
      11    H5      17.481085   13.387919   23.650248 H          1 MOL1         0.3769
      12    C4      19.175642   14.262035   20.989784 C.3        1 MOL1         0.1018
      13    H6      19.294085   13.209372   20.703761 H          1 MOL1         0.0783
      14    C5      18.861041   15.110376   19.725120 C.3        1 MOL1         0.1043
      15    H7      19.012198   16.163983   19.982331 H          1 MOL1         0.0783
      16    O4      17.482729   14.914659   19.324183 O.3        1 MOL1        -0.3740
      17    C6      19.783613   14.828483   18.511446 C.3        1 MOL1         0.0138
      18    H8      20.685716   15.444614   18.611624 H          1 MOL1         0.0794
      19    H9      19.272642   15.166284   17.599948 H          1 MOL1         0.0794
      20    O5      20.152381   13.449232   18.386402 O.3        1 MOL1        -0.5486
      21    H10     20.747644   13.235761   19.138393 H          1 MOL1         0.3769
      22    C7      15.049726   20.254767   21.857195 C.3        1 MOL1         0.2972
      23    H11     14.356722   21.028322   22.212367 H          1 MOL1         0.0751
      24    O6      16.249822   20.834465   21.312198 O.3        1 MOL1        -0.3740
      25    C8      15.434975   19.309072   23.026906 C.3        1 MOL1         0.1003
      26    H12     14.504006   18.875894   23.414214 H          1 MOL1         0.0783
      27    O7      16.081609   20.049496   24.076900 O.3        1 MOL1        -0.5519
      28    H13     16.038353   21.005110   23.833341 H          1 MOL1         0.3769
      29    C9      16.333194   18.143018   22.537489 C.3        1 MOL1         0.1053
      30    H14     17.305430   18.568428   22.264659 H          1 MOL1         0.0783
      31    O8      16.496925   17.163935   23.574041 O.3        1 MOL1        -0.5519
      32    H15     17.444640   17.223969   23.872389 H          1 MOL1         0.3769
      33    C10     15.745873   17.450901   21.280488 C.3        1 MOL1         0.1018
      34    H16     14.889443   16.835511   21.584129 H          1 MOL1         0.0783
      35    C11     15.288999   18.470565   20.203099 C.3        1 MOL1         0.1043
      36    H17     16.183193   18.954280   19.786993 H          1 MOL1         0.0783
      37    O9      14.435156   19.468688   20.815461 O.3        1 MOL1        -0.3740
      38    C12     14.522150   17.831294   19.020732 C.3        1 MOL1         0.0138
      39    H18     15.236736   17.262735   18.410328 H          1 MOL1         0.0794
      40    H19     14.122285   18.635755   18.389006 H          1 MOL1         0.0794
      41    O10     13.464141   16.969727   19.460173 O.3        1 MOL1        -0.5486
      42    H20     12.970423   16.674129   18.664516 H          1 MOL1         0.3769
      43    C13     18.353567   24.288569   20.842316 C.3        1 MOL1         0.2972
      44    H21     18.794074   25.273489   20.640878 H          1 MOL1         0.0751
      45    O11     19.367987   23.278229   21.037094 O.3        1 MOL1        -0.3740
      46    C14     17.399713   24.329426   22.063800 C.3        1 MOL1         0.1003
      47    H22     16.537542   24.946517   21.778423 H          1 MOL1         0.0783
      48    O12     18.016718   24.915942   23.217756 O.3        1 MOL1        -0.5519
      49    H23     18.779185   24.334020   23.462770 H          1 MOL1         0.3769
      50    C15     16.880270   22.903798   22.367509 C.3        1 MOL1         0.1053
      51    H24     17.737181   22.284490   22.668259 H          1 MOL1         0.0783
      52    O13     15.929627   22.956877   23.436708 O.3        1 MOL1        -0.5519
      53    H25     16.305107   23.599575   24.080268 H          1 MOL1         0.3769
      54    C16     16.235927   22.260582   21.108907 C.3        1 MOL1         0.1018
      55    H26     15.213287   22.642683   20.993306 H          1 MOL1         0.0783
      56    C17     17.022201   22.522285   19.789193 C.3        1 MOL1         0.1043
      57    H27     17.869038   21.826955   19.749864 H          1 MOL1         0.0783
      58    O14     17.534820   23.878421   19.730007 O.3        1 MOL1        -0.3740
      59    C18     16.165831   22.270002   18.526008 C.3        1 MOL1         0.0138
      60    H28     15.925957   21.199147   18.479687 H          1 MOL1         0.0794
      61    H29     16.770110   22.510820   17.641639 H          1 MOL1         0.0794
      62    O15     14.956761   23.040809   18.525096 O.3        1 MOL1        -0.5486
      63    H30     14.484909   22.853313   17.684869 H          1 MOL1         0.3769
      64    C19     23.329973   22.538203   21.962377 C.3        1 MOL1         0.2972
      65    H31     24.388921   22.596466   22.245515 H          1 MOL1         0.0751
      66    O16     22.983133   21.228434   21.472855 O.3        1 MOL1        -0.3740
      67    C20     22.438050   22.859530   23.184398 C.3        1 MOL1         0.1003
      68    H32     22.674156   23.884375   23.499215 H          1 MOL1         0.0783
      69    O17     22.701243   21.960922   24.274233 O.3        1 MOL1        -0.5519
      70    H33     23.404269   21.334901   23.972360 H          1 MOL1         0.3769
      71    C21     20.943147   22.809547   22.798310 C.3        1 MOL1         0.1053
      72    H34     20.691137   21.776984   22.533454 H          1 MOL1         0.0783
      73    O18     20.172759   23.215659   23.931394 O.3        1 MOL1        -0.5519
      74    H35     20.570875   22.722436   24.684572 H          1 MOL1         0.3769
      75    C22     20.642019   23.698880   21.564189 C.3        1 MOL1         0.1018
      76    H36     20.635579   24.752393   21.873597 H          1 MOL1         0.0783
      77    C23     21.672555   23.480941   20.418332 C.3        1 MOL1         0.1043
      78    H37     21.474869   22.498129   19.971642 H          1 MOL1         0.0783
      79    O19     23.031353   23.499110   20.927652 O.3        1 MOL1        -0.3740
      80    C24     21.555935   24.527800   19.285212 C.3        1 MOL1         0.0138
      81    H38     20.616587   24.349855   18.743973 H          1 MOL1         0.0794
      82    H39     22.377882   24.368974   18.574344 H          1 MOL1         0.0794
      83    O20     21.580707   25.870536   19.786023 O.3        1 MOL1        -0.5486
      84    H40     21.570373   26.476712   19.013423 H          1 MOL1         0.3769
      85    C25     24.884328   17.556907   20.798550 C.3        1 MOL1         0.2972
      86    H41     25.589173   16.772278   20.495243 H          1 MOL1         0.0751
      87    O21     23.598786   17.003246   21.141353 O.3        1 MOL1        -0.3740
      88    C26     25.439769   18.387763   21.990005 C.3        1 MOL1         0.1003
      89    H42     26.357979   18.873128   21.634248 H          1 MOL1         0.0783
      90    O22     25.771831   17.569557   23.121122 O.3        1 MOL1        -0.5519
      91    H43     24.927132   17.168865   23.448338 H          1 MOL1         0.3769
      92    C27     24.444538   19.506834   22.389563 C.3        1 MOL1         0.1053
      93    H44     23.521869   19.040403   22.764007 H          1 MOL1         0.0783
      94    O23     25.034686   20.316514   23.412117 O.3        1 MOL1        -0.5519
      95    H45     25.463530   19.678904   24.026619 H          1 MOL1         0.3769
      96    C28     24.092584   20.370837   21.150380 C.3        1 MOL1         0.1018
      97    H46     24.977761   20.953000   20.862527 H          1 MOL1         0.0783
      98    C29     23.657801   19.497489   19.944593 C.3        1 MOL1         0.1043
      99    H47     22.705072   19.015465   20.194557 H          1 MOL1         0.0783
     100    O24     24.665687   18.480458   19.705652 O.3        1 MOL1        -0.3740
     101    C30     23.419487   20.302430   18.641808 C.3        1 MOL1         0.0138
     102    H48     22.407443   20.724751   18.681317 H          1 MOL1         0.0794
     103    H49     23.444875   19.609620   17.790305 H          1 MOL1         0.0794
     104    O25     24.368405   21.359709   18.452375 O.3        1 MOL1        -0.5486
     105    H50     24.171972   22.049211   19.124910 H          1 MOL1         0.3769
     106    C31     21.279079   13.869651   22.184745 C.3        1 MOL1         0.2972
     107    H51     20.758455   12.953979   22.492843 H          1 MOL1         0.0751
     108    O26     20.386733   14.804830   21.545597 O.3        1 MOL1        -0.3740
     109    C32     21.933865   14.548596   23.411257 C.3        1 MOL1         0.1003
     110    H52     22.719480   13.874105   23.774887 H          1 MOL1         0.0783
     111    O27     20.976350   14.754115   24.464223 O.3        1 MOL1        -0.5519
     112    H53     20.403507   15.531118   24.226157 H          1 MOL1         0.3769
     113    C33     22.603730   15.873586   22.983329 C.3        1 MOL1         0.1053
     114    H54     21.802005   16.550700   22.677803 H          1 MOL1         0.0783
     115    O28     23.312231   16.455682   24.082213 O.3        1 MOL1        -0.5519
     116    H55     22.605596   16.881186   24.639620 H          1 MOL1         0.3769
     117    C34     23.549480   15.702816   21.764596 C.3        1 MOL1         0.1018
     118    H56     24.533868   15.370516   22.118920 H          1 MOL1         0.0783
     119    C35     23.007013   14.728250   20.675016 C.3        1 MOL1         0.1043
     120    H57     22.275325   15.285453   20.078756 H          1 MOL1         0.0783
     121    O29     22.343027   13.573937   21.255357 O.3        1 MOL1        -0.3740
     122    C36     24.095247   14.232263   19.693958 C.3        1 MOL1         0.0138
     123    H58     24.414147   15.078553   19.070720 H          1 MOL1         0.0794
     124    H59     23.649126   13.484481   19.024592 H          1 MOL1         0.0794
     125    O30     25.226032   13.677700   20.376989 O.3        1 MOL1        -0.5486
     126    H60     25.838136   13.318252   19.698070 H          1 MOL1         0.3769
     127    C1      18.382309   20.075237   17.269755 C.2        1 MOL1        -0.2535
     128    H1      17.656578   19.263959   17.282336 H          1 MOL1         0.0845
     129    H2      18.235286   20.868515   16.539445 H          1 MOL1         0.0845
     130    C2      19.418789   20.096801   18.111206 C.2        1 MOL1        -0.1324
     131    H3      20.131733   20.919376   18.082863 H          1 MOL1         0.0833
     132    C3      19.687201   19.026611   19.144746 C.3        1 MOL1        -0.1813
     133    H4      20.642958   18.535654   18.921221 H          1 MOL1         0.0753
     134    H5      18.910623   18.252659   19.092983 H          1 MOL1         0.0753
     135    C4      19.735821   19.606857   20.573702 C.3        1 MOL1        -0.1855
     136    H6      20.502611   20.388642   20.630016 H          1 MOL1         0.0755
     137    H7      18.775986   20.080459   20.810720 H          1 MOL1         0.0755
     138    C5      20.031630   18.511317   21.617334 C.3        1 MOL1        -0.1855
     139    H8      20.991126   18.037982   21.384138 H          1 MOL1         0.0755
     140    H9      19.269922   17.726021   21.544771 H          1 MOL1         0.0755
     141    C6      20.058178   19.059973   23.068254 C.3        1 MOL1        -0.1958
     142    H10     20.931279   19.707653   23.203350 H          1 MOL1         0.0753
     143    H11     19.166512   19.665460   23.267812 H          1 MOL1         0.0753
     144    C7      20.115953   17.969389   24.134623 C.2        1 MOL1         0.6174
     145    O1      19.282579   17.082825   24.099461 O.co2      1 MOL1        -0.6695
     146    O2      21.078502   17.947576   24.876842 O.co2      1 MOL1        -0.6695
@<TRIPOS>BOND
    1     1     2    1
    2     1     3    1
    3     1     4    1
    4     4     5    1
    5     4     6    1
    6     6     7    1
    7     4     8    1
    8     8     9    1
    9     8    10    1
   10    10    11    1
   11     8    12    1
   12    12    13    1
   13    12    14    1
   14    14    15    1
   15     1    16    1
   16    14    16    1
   17    14    17    1
   18    17    18    1
   19    17    19    1
   20    17    20    1
   21    20    21    1
   22    22    23    1
   23    22    24    1
   24    22    25    1
   25    25    26    1
   26    25    27    1
   27    27    28    1
   28    25    29    1
   29    29    30    1
   30    29    31    1
   31    31    32    1
   32     3    33    1
   33    29    33    1
   34    33    34    1
   35    33    35    1
   36    35    36    1
   37    22    37    1
   38    35    37    1
   39    35    38    1
   40    38    39    1
   41    38    40    1
   42    38    41    1
   43    41    42    1
   44    43    44    1
   45    43    45    1
   46    43    46    1
   47    46    47    1
   48    46    48    1
   49    48    49    1
   50    46    50    1
   51    50    51    1
   52    50    52    1
   53    52    53    1
   54    24    54    1
   55    50    54    1
   56    54    55    1
   57    54    56    1
   58    56    57    1
   59    43    58    1
   60    56    58    1
   61    56    59    1
   62    59    60    1
   63    59    61    1
   64    59    62    1
   65    62    63    1
   66    64    65    1
   67    64    66    1
   68    64    67    1
   69    67    68    1
   70    67    69    1
   71    69    70    1
   72    67    71    1
   73    71    72    1
   74    71    73    1
   75    73    74    1
   76    45    75    1
   77    71    75    1
   78    75    76    1
   79    75    77    1
   80    77    78    1
   81    64    79    1
   82    77    79    1
   83    77    80    1
   84    80    81    1
   85    80    82    1
   86    80    83    1
   87    83    84    1
   88    85    86    1
   89    85    87    1
   90    85    88    1
   91    88    89    1
   92    88    90    1
   93    90    91    1
   94    88    92    1
   95    92    93    1
   96    92    94    1
   97    94    95    1
   98    66    96    1
   99    92    96    1
  100    96    97    1
  101    96    98    1
  102    98    99    1
  103    85   100    1
  104    98   100    1
  105    98   101    1
  106   101   102    1
  107   101   103    1
  108   101   104    1
  109   104   105    1
  110   106   107    1
  111    12   108    1
  112   106   108    1
  113   106   109    1
  114   109   110    1
  115   109   111    1
  116   111   112    1
  117   109   113    1
  118   113   114    1
  119   113   115    1
  120   115   116    1
  121    87   117    1
  122   113   117    1
  123   117   118    1
  124   117   119    1
  125   119   120    1
  126   106   121    1
  127   119   121    1
  128   119   122    1
  129   122   123    1
  130   122   124    1
  131   122   125    1
  132   125   126    1
  133   127   128    1
  134   127   129    1
  135   127   130    2
  136   130   131    1
  137   130   132    1
  138   132   133    1
  139   132   134    1
  140   132   135    1
  141   135   136    1
  142   135   137    1
  143   135   138    1
  144   138   139    1
  145   138   140    1
  146   138   141    1
  147   141   142    1
  148   141   143    1
  149   141   144    1
  150   144   145    1
  151   144   146    2
@<TRIPOS>SUBSTRUCTURE
       1 MOL1            1 RESIDUE      1      MOL     
       2 MOL1          146 RESIDUE      1      MOL     
@<SCITEGIC>MOL_PROPERTY
feprocess Rank
SciTegic.value.IntegerValue
1

@<SCITEGIC>MOL_PROPERTY
Conf_Id
SciTegic.value.IntegerValue
641

@<SCITEGIC>MOL_PROPERTY
Probability
SciTegic.value.DoubleValue
47.21

@<SCITEGIC>MOL_PROPERTY
G
SciTegic.value.DoubleValue
500.820

@<SCITEGIC>MOL_PROPERTY
E
SciTegic.value.DoubleValue
312.438

@<SCITEGIC>MOL_PROPERTY
-TS
SciTegic.value.DoubleValue
188.382

@<SCITEGIC>MOL_PROPERTY
U+W
SciTegic.value.DoubleValue
183.667

@<SCITEGIC>MOL_PROPERTY
U
SciTegic.value.DoubleValue
258.085

@<SCITEGIC>MOL_PROPERTY
W
SciTegic.value.DoubleValue
-74.418

@<SCITEGIC>MOL_PROPERTY
W(PB)
SciTegic.value.DoubleValue
-80.436

@<SCITEGIC>MOL_PROPERTY
W(SA)
SciTegic.value.DoubleValue
6.018

@<SCITEGIC>MOL_PROPERTY
Valence
SciTegic.value.DoubleValue
154.870

@<SCITEGIC>MOL_PROPERTY
Coulomb
SciTegic.value.DoubleValue
129.247

@<SCITEGIC>MOL_PROPERTY
VdW
SciTegic.value.DoubleValue
-26.032

@<SCITEGIC>MOL_PROPERTY
VdW6
SciTegic.value.DoubleValue
-190.212

@<SCITEGIC>MOL_PROPERTY
VdW12
SciTegic.value.DoubleValue
164.180

@<SCITEGIC>MOL_PROPERTY
Bond
SciTegic.value.DoubleValue
5.208

@<SCITEGIC>MOL_PROPERTY
Angle
SciTegic.value.DoubleValue
15.552

@<SCITEGIC>MOL_PROPERTY
Pdih
SciTegic.value.DoubleValue
134.058

@<SCITEGIC>MOL_PROPERTY
Idih
SciTegic.value.DoubleValue
0.052

@<SCITEGIC>MOL_PROPERTY
Tether
SciTegic.value.DoubleValue
0.000

