@<TRIPOS>MOLECULE
CD_guest-s16_fast_vm2_rndm.mol2 : feprocess host+ligand conformer 1
         139         145           2
SMALL
USER_CHARGES
 
@<TRIPOS>ATOM
       1    C1      16.285196   15.214461   20.578654 C.3        1 MOL1         0.2972
       2    H1      15.234823   15.080226   20.290308 H          1 MOL1         0.0751
       3    O1      16.580595   16.601379   20.854820 O.3        1 MOL1        -0.3740
       4    C2      16.643944   14.336806   21.808921 C.3        1 MOL1         0.1003
       5    H2      16.495205   13.292002   21.506222 H          1 MOL1         0.0783
       6    O2      15.801142   14.610731   22.937973 O.3        1 MOL1        -0.5519
       7    H3      15.980421   15.546274   23.209871 H          1 MOL1         0.3769
       8    C3      18.133526   14.507307   22.195422 C.3        1 MOL1         0.1053
       9    H4      18.275896   15.532621   22.564386 H          1 MOL1         0.0783
      10    O3      18.448900   13.567216   23.227689 O.3        1 MOL1        -0.5519
      11    H5      17.668466   13.576660   23.827643 H          1 MOL1         0.3769
      12    C4      19.066004   14.295274   20.971848 C.3        1 MOL1         0.1018
      13    H6      19.131113   13.221733   20.753689 H          1 MOL1         0.0783
      14    C5      18.561936   15.038597   19.703398 C.3        1 MOL1         0.1043
      15    H7      18.710322   16.112955   19.854219 H          1 MOL1         0.0783
      16    O4      17.148989   14.787869   19.502534 O.3        1 MOL1        -0.3740
      17    C6      19.331492   14.663146   18.412869 C.3        1 MOL1         0.0138
      18    H8      20.323205   15.133565   18.449850 H          1 MOL1         0.0794
      19    H9      18.801107   15.095154   17.553917 H          1 MOL1         0.0794
      20    O5      19.475334   13.247877   18.241631 O.3        1 MOL1        -0.5486
      21    H10     20.167158   12.944796   18.868463 H          1 MOL1         0.3769
      22    C7      14.884621   20.266814   21.792336 C.3        1 MOL1         0.2972
      23    H11     14.234593   21.096108   22.099656 H          1 MOL1         0.0751
      24    O6      16.080362   20.743896   21.143447 O.3        1 MOL1        -0.3740
      25    C8      15.271691   19.397230   23.018740 C.3        1 MOL1         0.1003
      26    H12     14.336875   19.001323   23.436649 H          1 MOL1         0.0783
      27    O7      15.948279   20.160578   24.030327 O.3        1 MOL1        -0.5519
      28    H13     15.853609   21.114521   23.791586 H          1 MOL1         0.3769
      29    C9      16.150460   18.197078   22.596735 C.3        1 MOL1         0.1053
      30    H14     17.118553   18.590935   22.265582 H          1 MOL1         0.0783
      31    O8      16.342824   17.342814   23.728628 O.3        1 MOL1        -0.5519
      32    H15     16.586639   17.955671   24.458806 H          1 MOL1         0.3769
      33    C10     15.522237   17.400874   21.424572 C.3        1 MOL1         0.1018
      34    H16     14.705982   16.782254   21.820033 H          1 MOL1         0.0783
      35    C11     14.979842   18.325044   20.296689 C.3        1 MOL1         0.1043
      36    H17     15.838802   18.748024   19.759610 H          1 MOL1         0.0783
      37    O9      14.193803   19.405663   20.862381 O.3        1 MOL1        -0.3740
      38    C12     14.111029   17.583215   19.252703 C.3        1 MOL1         0.0138
      39    H18     14.766505   16.944438   18.645412 H          1 MOL1         0.0794
      40    H19     13.664569   18.326293   18.578362 H          1 MOL1         0.0794
      41    O10     13.088172   16.787115   19.864510 O.3        1 MOL1        -0.5486
      42    H20     12.527919   16.418783   19.146753 H          1 MOL1         0.3769
      43    C13     18.434156   24.078586   20.664957 C.3        1 MOL1         0.2972
      44    H21     18.887401   25.054054   20.446846 H          1 MOL1         0.0751
      45    O11     19.449717   23.071632   20.891471 O.3        1 MOL1        -0.3740
      46    C14     17.463197   24.176904   21.873127 C.3        1 MOL1         0.1003
      47    H22     16.652643   24.853635   21.572169 H          1 MOL1         0.0783
      48    O12     18.094547   24.716210   23.043354 O.3        1 MOL1        -0.5519
      49    H23     18.769302   24.052016   23.333393 H          1 MOL1         0.3769
      50    C15     16.832266   22.799210   22.182509 C.3        1 MOL1         0.1053
      51    H24     17.632439   22.130614   22.528075 H          1 MOL1         0.0783
      52    O13     15.853543   22.959581   23.215496 O.3        1 MOL1        -0.5519
      53    H25     16.250133   23.605860   23.843325 H          1 MOL1         0.3769
      54    C16     16.184789   22.166548   20.920183 C.3        1 MOL1         0.1018
      55    H26     15.200276   22.620121   20.745861 H          1 MOL1         0.0783
      56    C17     17.051504   22.331066   19.638725 C.3        1 MOL1         0.1043
      57    H27     17.861773   21.600764   19.691388 H          1 MOL1         0.0783
      58    O14     17.632296   23.656007   19.544419 O.3        1 MOL1        -0.3740
      59    C18     16.268299   22.041111   18.336969 C.3        1 MOL1         0.0138
      60    H28     15.984020   20.980120   18.332693 H          1 MOL1         0.0794
      61    H29     16.937490   22.204807   17.481672 H          1 MOL1         0.0794
      62    O15     15.097303   22.859367   18.218189 O.3        1 MOL1        -0.5486
      63    H30     14.671144   22.646771   17.359401 H          1 MOL1         0.3769
      64    C19     23.395376   22.571834   22.135716 C.3        1 MOL1         0.2972
      65    H31     24.411965   22.693706   22.531115 H          1 MOL1         0.0751
      66    O16     23.242756   21.321377   21.437559 O.3        1 MOL1        -0.3740
      67    C20     22.354790   22.635788   23.283508 C.3        1 MOL1         0.1003
      68    H32     22.450264   23.624779   23.750533 H          1 MOL1         0.0783
      69    O17     22.591871   21.622689   24.274689 O.3        1 MOL1        -0.5519
      70    H33     23.497973   21.262867   24.114948 H          1 MOL1         0.3769
      71    C21     20.916791   22.500633   22.731547 C.3        1 MOL1         0.1053
      72    H34     20.805334   21.483309   22.338207 H          1 MOL1         0.0783
      73    O18     19.994617   22.704268   23.805541 O.3        1 MOL1        -0.5519
      74    H35     20.345040   22.148465   24.538133 H          1 MOL1         0.3769
      75    C22     20.645955   23.506213   21.581091 C.3        1 MOL1         0.1018
      76    H36     20.525365   24.506140   22.018055 H          1 MOL1         0.0783
      77    C23     21.801364   23.539266   20.539059 C.3        1 MOL1         0.1043
      78    H37     21.768932   22.608575   19.959543 H          1 MOL1         0.0783
      79    O19     23.085489   23.634165   21.208706 O.3        1 MOL1        -0.3740
      80    C24     21.688658   24.707020   19.529869 C.3        1 MOL1         0.0138
      81    H38     20.847941   24.502772   18.853130 H          1 MOL1         0.0794
      82    H39     22.600766   24.730526   18.918554 H          1 MOL1         0.0794
      83    O20     21.492058   25.968633   20.180691 O.3        1 MOL1        -0.5486
      84    H40     21.513138   26.666756   19.490176 H          1 MOL1         0.3769
      85    C25     25.116355   17.665168   20.961283 C.3        1 MOL1         0.2972
      86    H41     25.786005   16.824106   20.739911 H          1 MOL1         0.0751
      87    O21     23.755802   17.221070   21.158905 O.3        1 MOL1        -0.3740
      88    C26     25.596320   18.456015   22.207502 C.3        1 MOL1         0.1003
      89    H42     26.577585   18.880208   21.957337 H          1 MOL1         0.0783
      90    O22     25.743164   17.613499   23.359575 O.3        1 MOL1        -0.5519
      91    H43     24.847787   17.242048   23.563269 H          1 MOL1         0.3769
      92    C27     24.636171   19.634097   22.508008 C.3        1 MOL1         0.1053
      93    H44     23.662127   19.216145   22.799375 H          1 MOL1         0.0783
      94    O23     25.175852   20.408005   23.585124 O.3        1 MOL1        -0.5519
      95    H45     25.542781   19.745498   24.214221 H          1 MOL1         0.3769
      96    C28     24.427739   20.523415   21.250125 C.3        1 MOL1         0.1018
      97    H46     25.315696   21.150233   21.098903 H          1 MOL1         0.0783
      98    C29     24.166717   19.686870   19.967126 C.3        1 MOL1         0.1043
      99    H47     23.160712   19.264909   20.047342 H          1 MOL1         0.0783
     100    O24     25.119314   18.600382   19.861275 O.3        1 MOL1        -0.3740
     101    C30     24.194429   20.516436   18.659737 C.3        1 MOL1         0.0138
     102    H48     23.281218   21.125198   18.612909 H          1 MOL1         0.0794
     103    H49     24.163020   19.823848   17.808237 H          1 MOL1         0.0794
     104    O25     25.346752   21.362677   18.563807 O.3        1 MOL1        -0.5486
     105    H50     25.209401   22.118260   19.174787 H          1 MOL1         0.3769
     106    C31     21.323089   13.962347   21.883560 C.3        1 MOL1         0.2972
     107    H51     20.879107   12.988162   22.125713 H          1 MOL1         0.0751
     108    O26     20.359635   14.852036   21.281741 O.3        1 MOL1        -0.3740
     109    C32     21.905543   14.621642   23.160442 C.3        1 MOL1         0.1003
     110    H52     22.697421   13.959416   23.534203 H          1 MOL1         0.0783
     111    O27     20.910647   14.785668   24.183633 O.3        1 MOL1        -0.5519
     112    H53     20.078938   14.365239   23.854405 H          1 MOL1         0.3769
     113    C33     22.542869   15.987778   22.825784 C.3        1 MOL1         0.1053
     114    H54     21.736169   16.659080   22.513582 H          1 MOL1         0.0783
     115    O28     23.171718   16.506046   24.001157 O.3        1 MOL1        -0.5519
     116    H55     22.509082   16.364510   24.715037 H          1 MOL1         0.3769
     117    C34     23.561360   15.882620   21.661916 C.3        1 MOL1         0.1018
     118    H56     24.492793   15.447628   22.047893 H          1 MOL1         0.0783
     119    C35     23.024905   15.029620   20.475056 C.3        1 MOL1         0.1043
     120    H57     22.264510   15.622567   19.950440 H          1 MOL1         0.0783
     121    O29     22.414964   13.801751   20.953228 O.3        1 MOL1        -0.3740
     122    C36     24.114000   14.666543   19.437597 C.3        1 MOL1         0.0138
     123    H58     24.393975   15.578886   18.893642 H          1 MOL1         0.0794
     124    H59     23.682734   13.969947   18.706202 H          1 MOL1         0.0794
     125    O30     25.274933   14.091224   20.050214 O.3        1 MOL1        -0.5486
     126    H60     25.885415   13.815804   19.331732 H          1 MOL1         0.3769
     127    C1      19.989975   18.341600   21.192809 C.3        1 MOL1        -0.1693
     128    H1      20.769641   18.537179   21.940335 H          1 MOL1         0.0829
     129    H2      19.418416   17.461536   21.504654 H          1 MOL1         0.0829
     130    C2      20.472780   18.387112   19.702861 C.3        1 MOL1        -0.1768
     131    H3      21.472345   17.989476   19.505849 H          1 MOL1         0.0829
     132    H4      19.777589   17.960526   18.970011 H          1 MOL1         0.0829
     133    C3      20.354117   19.932796   19.871763 C.3        1 MOL1         0.1211
     134    H5      21.202450   20.385255   20.394962 H          1 MOL1         0.0786
     135    C4      19.152721   19.597776   20.803962 C.3        1 MOL1        -0.1768
     136    H6      18.946505   20.308798   21.610225 H          1 MOL1         0.0829
     137    H7      18.216269   19.372786   20.279812 H          1 MOL1         0.0829
     138    O1      20.042846   20.673713   18.716269 O.3        1 MOL1        -0.5515
     139    H8      19.782360   21.568573   19.020079 H          1 MOL1         0.3773
@<TRIPOS>BOND
    1     1     2    1
    2     1     3    1
    3     1     4    1
    4     4     5    1
    5     4     6    1
    6     6     7    1
    7     4     8    1
    8     8     9    1
    9     8    10    1
   10    10    11    1
   11     8    12    1
   12    12    13    1
   13    12    14    1
   14    14    15    1
   15     1    16    1
   16    14    16    1
   17    14    17    1
   18    17    18    1
   19    17    19    1
   20    17    20    1
   21    20    21    1
   22    22    23    1
   23    22    24    1
   24    22    25    1
   25    25    26    1
   26    25    27    1
   27    27    28    1
   28    25    29    1
   29    29    30    1
   30    29    31    1
   31    31    32    1
   32     3    33    1
   33    29    33    1
   34    33    34    1
   35    33    35    1
   36    35    36    1
   37    22    37    1
   38    35    37    1
   39    35    38    1
   40    38    39    1
   41    38    40    1
   42    38    41    1
   43    41    42    1
   44    43    44    1
   45    43    45    1
   46    43    46    1
   47    46    47    1
   48    46    48    1
   49    48    49    1
   50    46    50    1
   51    50    51    1
   52    50    52    1
   53    52    53    1
   54    24    54    1
   55    50    54    1
   56    54    55    1
   57    54    56    1
   58    56    57    1
   59    43    58    1
   60    56    58    1
   61    56    59    1
   62    59    60    1
   63    59    61    1
   64    59    62    1
   65    62    63    1
   66    64    65    1
   67    64    66    1
   68    64    67    1
   69    67    68    1
   70    67    69    1
   71    69    70    1
   72    67    71    1
   73    71    72    1
   74    71    73    1
   75    73    74    1
   76    45    75    1
   77    71    75    1
   78    75    76    1
   79    75    77    1
   80    77    78    1
   81    64    79    1
   82    77    79    1
   83    77    80    1
   84    80    81    1
   85    80    82    1
   86    80    83    1
   87    83    84    1
   88    85    86    1
   89    85    87    1
   90    85    88    1
   91    88    89    1
   92    88    90    1
   93    90    91    1
   94    88    92    1
   95    92    93    1
   96    92    94    1
   97    94    95    1
   98    66    96    1
   99    92    96    1
  100    96    97    1
  101    96    98    1
  102    98    99    1
  103    85   100    1
  104    98   100    1
  105    98   101    1
  106   101   102    1
  107   101   103    1
  108   101   104    1
  109   104   105    1
  110   106   107    1
  111    12   108    1
  112   106   108    1
  113   106   109    1
  114   109   110    1
  115   109   111    1
  116   111   112    1
  117   109   113    1
  118   113   114    1
  119   113   115    1
  120   115   116    1
  121    87   117    1
  122   113   117    1
  123   117   118    1
  124   117   119    1
  125   119   120    1
  126   106   121    1
  127   119   121    1
  128   119   122    1
  129   122   123    1
  130   122   124    1
  131   122   125    1
  132   125   126    1
  133   127   128    1
  134   127   129    1
  135   127   130    1
  136   130   131    1
  137   130   132    1
  138   130   133    1
  139   133   134    1
  140   127   135    1
  141   133   135    1
  142   135   136    1
  143   135   137    1
  144   133   138    1
  145   138   139    1
@<TRIPOS>SUBSTRUCTURE
       1 MOL1            1 RESIDUE      1      MOL     
       2 MOL1          139 RESIDUE      1      MOL     
@<SCITEGIC>MOL_PROPERTY
feprocess Rank
SciTegic.value.IntegerValue
1

@<SCITEGIC>MOL_PROPERTY
Conf_Id
SciTegic.value.IntegerValue
341

@<SCITEGIC>MOL_PROPERTY
Probability
SciTegic.value.DoubleValue
19.31

@<SCITEGIC>MOL_PROPERTY
G
SciTegic.value.DoubleValue
545.030

@<SCITEGIC>MOL_PROPERTY
E
SciTegic.value.DoubleValue
365.725

@<SCITEGIC>MOL_PROPERTY
-TS
SciTegic.value.DoubleValue
179.305

@<SCITEGIC>MOL_PROPERTY
U+W
SciTegic.value.DoubleValue
243.214

@<SCITEGIC>MOL_PROPERTY
U
SciTegic.value.DoubleValue
281.676

@<SCITEGIC>MOL_PROPERTY
W
SciTegic.value.DoubleValue
-38.462

@<SCITEGIC>MOL_PROPERTY
W(PB)
SciTegic.value.DoubleValue
-44.563

@<SCITEGIC>MOL_PROPERTY
W(SA)
SciTegic.value.DoubleValue
6.101

@<SCITEGIC>MOL_PROPERTY
Valence
SciTegic.value.DoubleValue
149.448

@<SCITEGIC>MOL_PROPERTY
Coulomb
SciTegic.value.DoubleValue
150.455

@<SCITEGIC>MOL_PROPERTY
VdW
SciTegic.value.DoubleValue
-18.228

@<SCITEGIC>MOL_PROPERTY
VdW6
SciTegic.value.DoubleValue
-168.866

@<SCITEGIC>MOL_PROPERTY
VdW12
SciTegic.value.DoubleValue
150.638

@<SCITEGIC>MOL_PROPERTY
Bond
SciTegic.value.DoubleValue
4.913

@<SCITEGIC>MOL_PROPERTY
Angle
SciTegic.value.DoubleValue
13.775

@<SCITEGIC>MOL_PROPERTY
Pdih
SciTegic.value.DoubleValue
130.761

@<SCITEGIC>MOL_PROPERTY
Idih
SciTegic.value.DoubleValue
0.000

@<SCITEGIC>MOL_PROPERTY
Tether
SciTegic.value.DoubleValue
0.000

@<TRIPOS>MOLECULE
CD_guest-s16_fast_vm2_rndm.mol2 : feprocess host+ligand conformer 2
         139         145           2
SMALL
USER_CHARGES
 
@<TRIPOS>ATOM
       1    C1      16.456402   15.481230   20.402026 C.3        1 MOL1         0.2972
       2    H1      15.484509   15.333647   19.913688 H          1 MOL1         0.0751
       3    O1      16.538797   16.765772   21.048359 O.3        1 MOL1        -0.3740
       4    C2      16.699338   14.396848   21.486045 C.3        1 MOL1         0.1003
       5    H2      16.655322   13.419618   20.987976 H          1 MOL1         0.0783
       6    O2      15.689643   14.450298   22.506995 O.3        1 MOL1        -0.5519
       7    H3      15.584740   15.399889   22.770597 H          1 MOL1         0.3769
       8    C3      18.108547   14.550705   22.111662 C.3        1 MOL1         0.1053
       9    H4      18.138793   15.500396   22.663327 H          1 MOL1         0.0783
      10    O3      18.360639   13.461883   23.006427 O.3        1 MOL1        -0.5519
      11    H5      17.529232   13.357965   23.521547 H          1 MOL1         0.3769
      12    C4      19.188739   14.599195   21.003328 C.3        1 MOL1         0.1018
      13    H6      19.251921   13.614566   20.521265 H          1 MOL1         0.0783
      14    C5      18.851549   15.665106   19.928636 C.3        1 MOL1         0.1043
      15    H7      18.877623   16.655389   20.399921 H          1 MOL1         0.0783
      16    O4      17.519852   15.399983   19.425723 O.3        1 MOL1        -0.3740
      17    C6      19.838543   15.708991   18.733371 C.3        1 MOL1         0.0138
      18    H8      20.637139   16.422069   18.973844 H          1 MOL1         0.0794
      19    H9      19.311770   16.111270   17.858016 H          1 MOL1         0.0794
      20    O5      20.408953   14.430429   18.422155 O.3        1 MOL1        -0.5486
      21    H10     20.984983   14.176457   19.179846 H          1 MOL1         0.3769
      22    C7      14.525428   20.359406   21.416771 C.3        1 MOL1         0.2972
      23    H11     13.802170   21.184430   21.440307 H          1 MOL1         0.0751
      24    O6      15.876923   20.818027   21.606560 O.3        1 MOL1        -0.3740
      25    C8      14.224784   19.332387   22.536570 C.3        1 MOL1         0.1003
      26    H12     13.227683   18.915190   22.344545 H          1 MOL1         0.0783
      27    O7      14.233088   19.960644   23.828678 O.3        1 MOL1        -0.5519
      28    H13     14.976285   20.615563   23.835762 H          1 MOL1         0.3769
      29    C9      15.246890   18.170292   22.491242 C.3        1 MOL1         0.1053
      30    H14     16.235663   18.572367   22.747488 H          1 MOL1         0.0783
      31    O8      14.872847   17.167554   23.441872 O.3        1 MOL1        -0.5519
      32    H15     14.655247   17.664556   24.261936 H          1 MOL1         0.3769
      33    C10     15.329926   17.547454   21.075835 C.3        1 MOL1         0.1018
      34    H16     14.436341   16.928021   20.922023 H          1 MOL1         0.0783
      35    C11     15.438404   18.617145   19.951239 C.3        1 MOL1         0.1043
      36    H17     16.443605   19.056968   19.993323 H          1 MOL1         0.0783
      37    O9      14.454909   19.662257   20.155448 O.3        1 MOL1        -0.3740
      38    C12     15.247051   18.043278   18.526577 C.3        1 MOL1         0.0138
      39    H18     16.133666   17.449399   18.267130 H          1 MOL1         0.0794
      40    H19     15.197262   18.879503   17.816464 H          1 MOL1         0.0794
      41    O10     14.070304   17.231312   18.423059 O.3        1 MOL1        -0.5486
      42    H20     13.978077   16.959535   17.483869 H          1 MOL1         0.3769
      43    C13     18.412113   24.026875   21.762883 C.3        1 MOL1         0.2972
      44    H21     18.915056   25.001923   21.804036 H          1 MOL1         0.0751
      45    O11     19.354803   22.949608   21.598195 O.3        1 MOL1        -0.3740
      46    C14     17.624277   23.787992   23.071771 C.3        1 MOL1         0.1003
      47    H22     16.856144   24.568741   23.146340 H          1 MOL1         0.0783
      48    O12     18.499566   23.867584   24.208566 O.3        1 MOL1        -0.5519
      49    H23     19.424240   23.853288   23.858740 H          1 MOL1         0.3769
      50    C15     16.917275   22.415753   23.030162 C.3        1 MOL1         0.1053
      51    H24     17.693817   21.643159   23.038823 H          1 MOL1         0.0783
      52    O13     16.086058   22.267004   24.184901 O.3        1 MOL1        -0.5519
      53    H25     16.642954   22.573233   24.935517 H          1 MOL1         0.3769
      54    C16     16.076980   22.236755   21.741548 C.3        1 MOL1         0.1018
      55    H26     15.133154   22.785297   21.857925 H          1 MOL1         0.0783
      56    C17     16.814114   22.704894   20.454403 C.3        1 MOL1         0.1043
      57    H27     17.565047   21.944369   20.211037 H          1 MOL1         0.0783
      58    O14     17.482642   23.976664   20.661092 O.3        1 MOL1        -0.3740
      59    C18     15.880895   22.834565   19.227361 C.3        1 MOL1         0.0138
      60    H28     15.550679   21.829559   18.932278 H          1 MOL1         0.0794
      61    H29     16.457376   23.247917   18.388825 H          1 MOL1         0.0794
      62    O15     14.741418   23.658562   19.503422 O.3        1 MOL1        -0.5486
      63    H30     14.218372   23.730557   18.675368 H          1 MOL1         0.3769
      64    C19     23.400721   22.474206   20.613687 C.3        1 MOL1         0.2972
      65    H31     24.399536   22.633122   20.187050 H          1 MOL1         0.0751
      66    O16     23.285614   21.180863   21.236798 O.3        1 MOL1        -0.3740
      67    C20     23.088844   23.539450   21.698872 C.3        1 MOL1         0.1003
      68    H32     23.159650   24.525156   21.220964 H          1 MOL1         0.0783
      69    O17     24.035411   23.470115   22.777832 O.3        1 MOL1        -0.5519
      70    H33     24.135948   22.515445   23.023585 H          1 MOL1         0.3769
      71    C21     21.645112   23.371741   22.236534 C.3        1 MOL1         0.1053
      72    H34     21.585387   22.416859   22.776861 H          1 MOL1         0.0783
      73    O18     21.332722   24.450938   23.123780 O.3        1 MOL1        -0.5519
      74    H35     22.129025   24.552273   23.692196 H          1 MOL1         0.3769
      75    C22     20.633933   23.330366   21.065084 C.3        1 MOL1         0.1018
      76    H36     20.599210   24.320789   20.591780 H          1 MOL1         0.0783
      77    C23     21.040724   22.282164   19.996383 C.3        1 MOL1         0.1043
      78    H37     21.000129   21.282849   20.446895 H          1 MOL1         0.0783
      79    O19     22.396561   22.565972   19.577125 O.3        1 MOL1        -0.3740
      80    C24     20.124444   22.250288   18.745598 C.3        1 MOL1         0.0138
      81    H38     19.310035   21.539296   18.932716 H          1 MOL1         0.0794
      82    H39     20.700890   21.853214   17.899460 H          1 MOL1         0.0794
      83    O20     19.576736   23.532426   18.410769 O.3        1 MOL1        -0.5486
      84    H40     18.939357   23.775525   19.121884 H          1 MOL1         0.3769
      85    C25     25.238409   17.568152   21.631706 C.3        1 MOL1         0.2972
      86    H41     25.948468   16.732323   21.672388 H          1 MOL1         0.0751
      87    O21     23.870530   17.122815   21.744038 O.3        1 MOL1        -0.3740
      88    C26     25.508836   18.574395   22.778040 C.3        1 MOL1         0.1003
      89    H42     26.514735   18.986472   22.624331 H          1 MOL1         0.0783
      90    O22     25.456785   17.932651   24.061894 O.3        1 MOL1        -0.5519
      91    H43     24.689806   17.305712   24.054274 H          1 MOL1         0.3769
      92    C27     24.499451   19.744939   22.711154 C.3        1 MOL1         0.1053
      93    H44     23.497448   19.346349   22.917184 H          1 MOL1         0.0783
      94    O23     24.836944   20.726887   23.696289 O.3        1 MOL1        -0.5519
      95    H45     25.026434   20.212374   24.512687 H          1 MOL1         0.3769
      96    C28     24.489914   20.395999   21.305813 C.3        1 MOL1         0.1018
      97    H46     25.390447   21.017630   21.213913 H          1 MOL1         0.0783
      98    C29     24.439659   19.355695   20.148712 C.3        1 MOL1         0.1043
      99    H47     23.427551   18.935828   20.107820 H          1 MOL1         0.0783
     100    O24     25.385346   18.283798   20.387863 O.3        1 MOL1        -0.3740
     101    C30     24.735905   19.960931   18.755446 C.3        1 MOL1         0.0138
     102    H48     23.878336   20.576431   18.452569 H          1 MOL1         0.0794
     103    H49     24.819327   19.141466   18.029118 H          1 MOL1         0.0794
     104    O25     25.930145   20.753788   18.751254 O.3        1 MOL1        -0.5486
     105    H50     26.090155   21.045458   17.827238 H          1 MOL1         0.3769
     106    C31     21.353066   13.896764   21.870376 C.3        1 MOL1         0.2972
     107    H51     20.841119   12.926543   21.913673 H          1 MOL1         0.0751
     108    O26     20.433355   14.974177   21.612977 O.3        1 MOL1        -0.3740
     109    C32     22.055047   14.186432   23.216284 C.3        1 MOL1         0.1003
     110    H52     22.825878   13.419139   23.365387 H          1 MOL1         0.0783
     111    O27     21.110559   14.134747   24.297841 O.3        1 MOL1        -0.5519
     112    H53     20.210805   14.143017   23.888999 H          1 MOL1         0.3769
     113    C33     22.745366   15.567269   23.167265 C.3        1 MOL1         0.1053
     114    H54     21.961174   16.327823   23.091380 H          1 MOL1         0.0783
     115    O28     23.491059   15.772477   24.369762 O.3        1 MOL1        -0.5519
     116    H55     22.889700   15.477083   25.090068 H          1 MOL1         0.3769
     117    C34     23.669571   15.707189   21.931854 C.3        1 MOL1         0.1018
     118    H56     24.606982   15.174306   22.138510 H          1 MOL1         0.0783
     119    C35     23.032382   15.170462   20.617151 C.3        1 MOL1         0.1043
     120    H57     22.296542   15.908884   20.280775 H          1 MOL1         0.0783
     121    O29     22.355628   13.904556   20.832830 O.3        1 MOL1        -0.3740
     122    C36     24.054793   14.995014   19.469640 C.3        1 MOL1         0.0138
     123    H58     24.396091   15.989691   19.152264 H          1 MOL1         0.0794
     124    H59     23.545498   14.535633   18.611787 H          1 MOL1         0.0794
     125    O30     25.178734   14.199884   19.867467 O.3        1 MOL1        -0.5486
     126    H60     25.759377   14.091691   19.082851 H          1 MOL1         0.3769
     127    C1      19.107299   19.403977   23.527511 C.3        1 MOL1        -0.1693
     128    H1      19.467737   20.339725   23.975004 H          1 MOL1         0.0829
     129    H2      18.165003   19.123846   24.012001 H          1 MOL1         0.0829
     130    C2      20.184408   18.277163   23.416841 C.3        1 MOL1        -0.1768
     131    H3      19.777295   17.269200   23.270237 H          1 MOL1         0.0829
     132    H4      20.932022   18.245517   24.216754 H          1 MOL1         0.0829
     133    C3      20.618787   18.999247   22.106425 C.3        1 MOL1         0.1211
     134    H5      21.275995   19.861487   22.276307 H          1 MOL1         0.0786
     135    C4      19.115052   19.378619   21.963249 C.3        1 MOL1        -0.1768
     136    H6      18.487419   18.601084   21.515801 H          1 MOL1         0.0829
     137    H7      18.907838   20.325999   21.459282 H          1 MOL1         0.0829
     138    O1      21.136562   18.170809   21.092332 O.3        1 MOL1        -0.5515
     139    H8      22.007067   17.842218   21.403716 H          1 MOL1         0.3773
@<TRIPOS>BOND
    1     1     2    1
    2     1     3    1
    3     1     4    1
    4     4     5    1
    5     4     6    1
    6     6     7    1
    7     4     8    1
    8     8     9    1
    9     8    10    1
   10    10    11    1
   11     8    12    1
   12    12    13    1
   13    12    14    1
   14    14    15    1
   15     1    16    1
   16    14    16    1
   17    14    17    1
   18    17    18    1
   19    17    19    1
   20    17    20    1
   21    20    21    1
   22    22    23    1
   23    22    24    1
   24    22    25    1
   25    25    26    1
   26    25    27    1
   27    27    28    1
   28    25    29    1
   29    29    30    1
   30    29    31    1
   31    31    32    1
   32     3    33    1
   33    29    33    1
   34    33    34    1
   35    33    35    1
   36    35    36    1
   37    22    37    1
   38    35    37    1
   39    35    38    1
   40    38    39    1
   41    38    40    1
   42    38    41    1
   43    41    42    1
   44    43    44    1
   45    43    45    1
   46    43    46    1
   47    46    47    1
   48    46    48    1
   49    48    49    1
   50    46    50    1
   51    50    51    1
   52    50    52    1
   53    52    53    1
   54    24    54    1
   55    50    54    1
   56    54    55    1
   57    54    56    1
   58    56    57    1
   59    43    58    1
   60    56    58    1
   61    56    59    1
   62    59    60    1
   63    59    61    1
   64    59    62    1
   65    62    63    1
   66    64    65    1
   67    64    66    1
   68    64    67    1
   69    67    68    1
   70    67    69    1
   71    69    70    1
   72    67    71    1
   73    71    72    1
   74    71    73    1
   75    73    74    1
   76    45    75    1
   77    71    75    1
   78    75    76    1
   79    75    77    1
   80    77    78    1
   81    64    79    1
   82    77    79    1
   83    77    80    1
   84    80    81    1
   85    80    82    1
   86    80    83    1
   87    83    84    1
   88    85    86    1
   89    85    87    1
   90    85    88    1
   91    88    89    1
   92    88    90    1
   93    90    91    1
   94    88    92    1
   95    92    93    1
   96    92    94    1
   97    94    95    1
   98    66    96    1
   99    92    96    1
  100    96    97    1
  101    96    98    1
  102    98    99    1
  103    85   100    1
  104    98   100    1
  105    98   101    1
  106   101   102    1
  107   101   103    1
  108   101   104    1
  109   104   105    1
  110   106   107    1
  111    12   108    1
  112   106   108    1
  113   106   109    1
  114   109   110    1
  115   109   111    1
  116   111   112    1
  117   109   113    1
  118   113   114    1
  119   113   115    1
  120   115   116    1
  121    87   117    1
  122   113   117    1
  123   117   118    1
  124   117   119    1
  125   119   120    1
  126   106   121    1
  127   119   121    1
  128   119   122    1
  129   122   123    1
  130   122   124    1
  131   122   125    1
  132   125   126    1
  133   127   128    1
  134   127   129    1
  135   127   130    1
  136   130   131    1
  137   130   132    1
  138   130   133    1
  139   133   134    1
  140   127   135    1
  141   133   135    1
  142   135   136    1
  143   135   137    1
  144   133   138    1
  145   138   139    1
@<TRIPOS>SUBSTRUCTURE
       1 MOL1            1 RESIDUE      1      MOL     
       2 MOL1          139 RESIDUE      1      MOL     
@<SCITEGIC>MOL_PROPERTY
feprocess Rank
SciTegic.value.IntegerValue
2

@<SCITEGIC>MOL_PROPERTY
Conf_Id
SciTegic.value.IntegerValue
987

@<SCITEGIC>MOL_PROPERTY
Probability
SciTegic.value.DoubleValue
11.39

@<SCITEGIC>MOL_PROPERTY
G
SciTegic.value.DoubleValue
545.345

@<SCITEGIC>MOL_PROPERTY
E
SciTegic.value.DoubleValue
366.411

@<SCITEGIC>MOL_PROPERTY
-TS
SciTegic.value.DoubleValue
178.934

@<SCITEGIC>MOL_PROPERTY
U+W
SciTegic.value.DoubleValue
243.899

@<SCITEGIC>MOL_PROPERTY
U
SciTegic.value.DoubleValue
279.379

@<SCITEGIC>MOL_PROPERTY
W
SciTegic.value.DoubleValue
-35.479

@<SCITEGIC>MOL_PROPERTY
W(PB)
SciTegic.value.DoubleValue
-41.502

@<SCITEGIC>MOL_PROPERTY
W(SA)
SciTegic.value.DoubleValue
6.023

@<SCITEGIC>MOL_PROPERTY
Valence
SciTegic.value.DoubleValue
152.508

@<SCITEGIC>MOL_PROPERTY
Coulomb
SciTegic.value.DoubleValue
149.357

@<SCITEGIC>MOL_PROPERTY
VdW
SciTegic.value.DoubleValue
-22.486

@<SCITEGIC>MOL_PROPERTY
VdW6
SciTegic.value.DoubleValue
-168.197

@<SCITEGIC>MOL_PROPERTY
VdW12
SciTegic.value.DoubleValue
145.711

@<SCITEGIC>MOL_PROPERTY
Bond
SciTegic.value.DoubleValue
4.415

@<SCITEGIC>MOL_PROPERTY
Angle
SciTegic.value.DoubleValue
11.142

@<SCITEGIC>MOL_PROPERTY
Pdih
SciTegic.value.DoubleValue
136.951

@<SCITEGIC>MOL_PROPERTY
Idih
SciTegic.value.DoubleValue
0.000

@<SCITEGIC>MOL_PROPERTY
Tether
SciTegic.value.DoubleValue
0.000

@<TRIPOS>MOLECULE
CD_guest-s16_fast_vm2_rndm.mol2 : feprocess host+ligand conformer 3
         139         145           2
SMALL
USER_CHARGES
 
@<TRIPOS>ATOM
       1    C1      16.279939   15.278119   21.718403 C.3        1 MOL1         0.2972
       2    H1      15.204878   15.200055   21.926236 H          1 MOL1         0.0751
       3    O1      16.653096   16.614605   21.331251 O.3        1 MOL1        -0.3740
       4    C2      17.094308   14.893307   22.975091 C.3        1 MOL1         0.1003
       5    H2      16.856402   13.849045   23.216157 H          1 MOL1         0.0783
       6    O2      16.749678   15.733456   24.090211 O.3        1 MOL1        -0.5519
       7    H3      15.994680   16.303185   23.802761 H          1 MOL1         0.3769
       8    C3      18.608145   14.995042   22.686831 C.3        1 MOL1         0.1053
       9    H4      18.841102   16.053029   22.529083 H          1 MOL1         0.0783
      10    O3      19.331204   14.510213   23.821241 O.3        1 MOL1        -0.5519
      11    H5      18.876967   14.915993   24.593984 H          1 MOL1         0.3769
      12    C4      19.022466   14.232497   21.401935 C.3        1 MOL1         0.1018
      13    H6      19.103319   13.161769   21.631461 H          1 MOL1         0.0783
      14    C5      18.038876   14.462610   20.216851 C.3        1 MOL1         0.1043
      15    H7      18.223866   15.469948   19.822956 H          1 MOL1         0.0783
      16    O4      16.657725   14.380692   20.653877 O.3        1 MOL1        -0.3740
      17    C6      18.244819   13.473936   19.044707 C.3        1 MOL1         0.0138
      18    H8      19.195126   13.714619   18.549178 H          1 MOL1         0.0794
      19    H9      17.444647   13.630560   18.308844 H          1 MOL1         0.0794
      20    O5      18.258238   12.110200   19.484445 O.3        1 MOL1        -0.5486
      21    H10     18.313696   11.540136   18.686455 H          1 MOL1         0.3769
      22    C7      14.844014   20.318703   20.699203 C.3        1 MOL1         0.2972
      23    H11     14.178358   21.133100   20.385172 H          1 MOL1         0.0751
      24    O6      16.092674   20.815237   21.215473 O.3        1 MOL1        -0.3740
      25    C8      14.189344   19.455266   21.810270 C.3        1 MOL1         0.1003
      26    H12     13.269778   19.025382   21.392351 H          1 MOL1         0.0783
      27    O7      13.856043   20.250482   22.959080 O.3        1 MOL1        -0.5519
      28    H13     14.659165   20.780859   23.196602 H          1 MOL1         0.3769
      29    C9      15.123494   18.286439   22.214902 C.3        1 MOL1         0.1053
      30    H14     16.015680   18.714485   22.690725 H          1 MOL1         0.0783
      31    O8      14.445086   17.432387   23.142384 O.3        1 MOL1        -0.5519
      32    H15     13.988688   18.044984   23.762753 H          1 MOL1         0.3769
      33    C10     15.569958   17.485023   20.963309 C.3        1 MOL1         0.1018
      34    H16     14.710928   16.920810   20.577160 H          1 MOL1         0.0783
      35    C11     16.110726   18.410013   19.842032 C.3        1 MOL1         0.1043
      36    H17     17.046964   18.863272   20.190889 H          1 MOL1         0.0783
      37    O9      15.140501   19.452880   19.579521 O.3        1 MOL1        -0.3740
      38    C12     16.439972   17.672702   18.518154 C.3        1 MOL1         0.0138
      39    H18     17.457466   17.267714   18.593570 H          1 MOL1         0.0794
      40    H19     16.447831   18.405651   17.700489 H          1 MOL1         0.0794
      41    O10     15.525239   16.609914   18.221523 O.3        1 MOL1        -0.5486
      42    H20     15.682704   15.897668   18.880913 H          1 MOL1         0.3769
      43    C13     18.423563   24.128106   21.785449 C.3        1 MOL1         0.2972
      44    H21     18.875230   25.118756   21.926033 H          1 MOL1         0.0751
      45    O11     19.425412   23.099702   21.665949 O.3        1 MOL1        -0.3740
      46    C14     17.522164   23.784758   22.994479 C.3        1 MOL1         0.1003
      47    H22     16.711883   24.524575   23.028181 H          1 MOL1         0.0783
      48    O12     18.279429   23.851769   24.212958 O.3        1 MOL1        -0.5519
      49    H23     19.219329   23.671926   23.970933 H          1 MOL1         0.3769
      50    C15     16.887966   22.385592   22.819622 C.3        1 MOL1         0.1053
      51    H24     17.691845   21.642181   22.885353 H          1 MOL1         0.0783
      52    O13     15.937467   22.153386   23.864148 O.3        1 MOL1        -0.5519
      53    H25     16.436242   22.310477   24.696439 H          1 MOL1         0.3769
      54    C16     16.197332   22.232735   21.440845 C.3        1 MOL1         0.1018
      55    H26     15.214640   22.720605   21.485605 H          1 MOL1         0.0783
      56    C17     17.035134   22.805950   20.261608 C.3        1 MOL1         0.1043
      57    H27     17.848524   22.096876   20.068424 H          1 MOL1         0.0783
      58    O14     17.607667   24.097124   20.596536 O.3        1 MOL1        -0.3740
      59    C18     16.234877   22.950175   18.945200 C.3        1 MOL1         0.0138
      60    H28     16.023821   21.946222   18.552827 H          1 MOL1         0.0794
      61    H29     16.864544   23.462829   18.205529 H          1 MOL1         0.0794
      62    O15     15.007871   23.664963   19.136476 O.3        1 MOL1        -0.5486
      63    H30     14.589856   23.780688   18.255289 H          1 MOL1         0.3769
      64    C19     23.504447   22.613281   20.931258 C.3        1 MOL1         0.2972
      65    H31     24.544288   22.748625   20.606702 H          1 MOL1         0.0751
      66    O16     23.258565   21.266065   21.380002 O.3        1 MOL1        -0.3740
      67    C20     23.146004   23.588528   22.085103 C.3        1 MOL1         0.1003
      68    H32     23.281364   24.608371   21.702117 H          1 MOL1         0.0783
      69    O17     24.004143   23.399641   23.221032 O.3        1 MOL1        -0.5519
      70    H33     23.956992   22.442197   23.472275 H          1 MOL1         0.3769
      71    C21     21.660492   23.427526   22.494609 C.3        1 MOL1         0.1053
      72    H34     21.532624   22.429329   22.935546 H          1 MOL1         0.0783
      73    O18     21.314313   24.428830   23.456727 O.3        1 MOL1        -0.5519
      74    H35     22.061733   24.441175   24.095351 H          1 MOL1         0.3769
      75    C22     20.733249   23.537324   21.258123 C.3        1 MOL1         0.1018
      76    H36     20.728978   24.579725   20.913036 H          1 MOL1         0.0783
      77    C23     21.203032   22.619655   20.095585 C.3        1 MOL1         0.1043
      78    H37     21.080076   21.573962   20.406031 H          1 MOL1         0.0783
      79    O19     22.603729   22.880815   19.833073 O.3        1 MOL1        -0.3740
      80    C24     20.412551   22.791316   18.771545 C.3        1 MOL1         0.0138
      81    H38     19.581078   22.076201   18.767560 H          1 MOL1         0.0794
      82    H39     21.067929   22.513466   17.935309 H          1 MOL1         0.0794
      83    O20     19.906722   24.118250   18.577332 O.3        1 MOL1        -0.5486
      84    H40     19.171206   24.248371   19.220650 H          1 MOL1         0.3769
      85    C25     24.994174   17.595589   22.007667 C.3        1 MOL1         0.2972
      86    H41     25.643121   16.728987   22.189351 H          1 MOL1         0.0751
      87    O21     23.642248   17.196052   21.715510 O.3        1 MOL1        -0.3740
      88    C26     24.963280   18.501127   23.260564 C.3        1 MOL1         0.1003
      89    H42     25.984991   18.861781   23.437157 H          1 MOL1         0.0783
      90    O22     24.514638   17.756738   24.404621 O.3        1 MOL1        -0.5519
      91    H43     24.031163   16.967371   24.058772 H          1 MOL1         0.3769
      92    C27     24.053200   19.727493   23.022923 C.3        1 MOL1         0.1053
      93    H44     23.021047   19.368476   22.939150 H          1 MOL1         0.0783
      94    O23     24.160020   20.620196   24.136013 O.3        1 MOL1        -0.5519
      95    H45     24.083085   20.043230   24.928711 H          1 MOL1         0.3769
      96    C28     24.411384   20.467477   21.709760 C.3        1 MOL1         0.1018
      97    H46     25.304471   21.081729   21.886205 H          1 MOL1         0.0783
      98    C29     24.646037   19.503132   20.510353 C.3        1 MOL1         0.1043
      99    H47     23.664804   19.127891   20.195052 H          1 MOL1         0.0783
     100    O24     25.478078   18.378007   20.896663 O.3        1 MOL1        -0.3740
     101    C30     25.288308   20.186471   19.279576 C.3        1 MOL1         0.0138
     102    H48     24.545964   20.856450   18.825042 H          1 MOL1         0.0794
     103    H49     25.529066   19.415114   18.535625 H          1 MOL1         0.0794
     104    O25     26.463998   20.928051   19.627243 O.3        1 MOL1        -0.5486
     105    H50     26.862316   21.263181   18.794357 H          1 MOL1         0.3769
     106    C31     21.355452   13.898033   20.655056 C.3        1 MOL1         0.2972
     107    H51     20.973137   12.941400   20.276204 H          1 MOL1         0.0751
     108    O26     20.282074   14.801825   20.992485 O.3        1 MOL1        -0.3740
     109    C32     22.268756   13.693473   21.895277 C.3        1 MOL1         0.1003
     110    H52     23.133525   13.103674   21.564353 H          1 MOL1         0.0783
     111    O27     21.601570   12.979607   22.946045 O.3        1 MOL1        -0.5519
     112    H53     20.825257   13.528139   23.224159 H          1 MOL1         0.3769
     113    C33     22.793194   15.058898   22.404351 C.3        1 MOL1         0.1053
     114    H54     21.936040   15.644754   22.762306 H          1 MOL1         0.0783
     115    O28     23.721492   14.857390   23.475096 O.3        1 MOL1        -0.5519
     116    H55     23.311478   14.169499   24.045542 H          1 MOL1         0.3769
     117    C34     23.473897   15.844655   21.256249 C.3        1 MOL1         0.1018
     118    H56     24.433493   15.363629   21.025448 H          1 MOL1         0.0783
     119    C35     22.604434   15.889853   19.968709 C.3        1 MOL1         0.1043
     120    H57     21.728432   16.518655   20.167567 H          1 MOL1         0.0783
     121    O29     22.161797   14.547064   19.644576 O.3        1 MOL1        -0.3740
     122    C36     23.313090   16.500247   18.730367 C.3        1 MOL1         0.0138
     123    H58     23.101188   17.576376   18.705314 H          1 MOL1         0.0794
     124    H59     22.865668   16.070344   17.824273 H          1 MOL1         0.0794
     125    O30     24.731211   16.293409   18.723543 O.3        1 MOL1        -0.5486
     126    H60     25.115306   16.887470   19.409809 H          1 MOL1         0.3769
     127    C1      20.420015   18.512499   21.810679 C.3        1 MOL1        -0.1693
     128    H1      19.970237   17.716420   21.203717 H          1 MOL1         0.0829
     129    H2      21.404341   18.756758   21.397488 H          1 MOL1         0.0829
     130    C2      20.350794   18.280268   23.357938 C.3        1 MOL1        -0.1768
     131    H3      21.032922   18.899640   23.952558 H          1 MOL1         0.0829
     132    H4      20.434767   17.244539   23.700888 H          1 MOL1         0.0829
     133    C3      18.905072   18.851241   23.244775 C.3        1 MOL1         0.1211
     134    H5      18.159211   18.118506   22.914541 H          1 MOL1         0.0786
     135    C4      19.479198   19.726897   22.091931 C.3        1 MOL1        -0.1768
     136    H6      19.992180   20.632548   22.433548 H          1 MOL1         0.0829
     137    H7      18.778109   19.995693   21.296526 H          1 MOL1         0.0829
     138    O1      18.440593   19.556465   24.370886 O.3        1 MOL1        -0.5515
     139    H8      18.234471   18.894722   25.061605 H          1 MOL1         0.3773
@<TRIPOS>BOND
    1     1     2    1
    2     1     3    1
    3     1     4    1
    4     4     5    1
    5     4     6    1
    6     6     7    1
    7     4     8    1
    8     8     9    1
    9     8    10    1
   10    10    11    1
   11     8    12    1
   12    12    13    1
   13    12    14    1
   14    14    15    1
   15     1    16    1
   16    14    16    1
   17    14    17    1
   18    17    18    1
   19    17    19    1
   20    17    20    1
   21    20    21    1
   22    22    23    1
   23    22    24    1
   24    22    25    1
   25    25    26    1
   26    25    27    1
   27    27    28    1
   28    25    29    1
   29    29    30    1
   30    29    31    1
   31    31    32    1
   32     3    33    1
   33    29    33    1
   34    33    34    1
   35    33    35    1
   36    35    36    1
   37    22    37    1
   38    35    37    1
   39    35    38    1
   40    38    39    1
   41    38    40    1
   42    38    41    1
   43    41    42    1
   44    43    44    1
   45    43    45    1
   46    43    46    1
   47    46    47    1
   48    46    48    1
   49    48    49    1
   50    46    50    1
   51    50    51    1
   52    50    52    1
   53    52    53    1
   54    24    54    1
   55    50    54    1
   56    54    55    1
   57    54    56    1
   58    56    57    1
   59    43    58    1
   60    56    58    1
   61    56    59    1
   62    59    60    1
   63    59    61    1
   64    59    62    1
   65    62    63    1
   66    64    65    1
   67    64    66    1
   68    64    67    1
   69    67    68    1
   70    67    69    1
   71    69    70    1
   72    67    71    1
   73    71    72    1
   74    71    73    1
   75    73    74    1
   76    45    75    1
   77    71    75    1
   78    75    76    1
   79    75    77    1
   80    77    78    1
   81    64    79    1
   82    77    79    1
   83    77    80    1
   84    80    81    1
   85    80    82    1
   86    80    83    1
   87    83    84    1
   88    85    86    1
   89    85    87    1
   90    85    88    1
   91    88    89    1
   92    88    90    1
   93    90    91    1
   94    88    92    1
   95    92    93    1
   96    92    94    1
   97    94    95    1
   98    66    96    1
   99    92    96    1
  100    96    97    1
  101    96    98    1
  102    98    99    1
  103    85   100    1
  104    98   100    1
  105    98   101    1
  106   101   102    1
  107   101   103    1
  108   101   104    1
  109   104   105    1
  110   106   107    1
  111    12   108    1
  112   106   108    1
  113   106   109    1
  114   109   110    1
  115   109   111    1
  116   111   112    1
  117   109   113    1
  118   113   114    1
  119   113   115    1
  120   115   116    1
  121    87   117    1
  122   113   117    1
  123   117   118    1
  124   117   119    1
  125   119   120    1
  126   106   121    1
  127   119   121    1
  128   119   122    1
  129   122   123    1
  130   122   124    1
  131   122   125    1
  132   125   126    1
  133   127   128    1
  134   127   129    1
  135   127   130    1
  136   130   131    1
  137   130   132    1
  138   130   133    1
  139   133   134    1
  140   127   135    1
  141   133   135    1
  142   135   136    1
  143   135   137    1
  144   133   138    1
  145   138   139    1
@<TRIPOS>SUBSTRUCTURE
       1 MOL1            1 RESIDUE      1      MOL     
       2 MOL1          139 RESIDUE      1      MOL     
@<SCITEGIC>MOL_PROPERTY
feprocess Rank
SciTegic.value.IntegerValue
3

@<SCITEGIC>MOL_PROPERTY
Conf_Id
SciTegic.value.IntegerValue
597

@<SCITEGIC>MOL_PROPERTY
Probability
SciTegic.value.DoubleValue
9.08

@<SCITEGIC>MOL_PROPERTY
G
SciTegic.value.DoubleValue
545.480

@<SCITEGIC>MOL_PROPERTY
E
SciTegic.value.DoubleValue
368.220

@<SCITEGIC>MOL_PROPERTY
-TS
SciTegic.value.DoubleValue
177.260

@<SCITEGIC>MOL_PROPERTY
U+W
SciTegic.value.DoubleValue
245.708

@<SCITEGIC>MOL_PROPERTY
U
SciTegic.value.DoubleValue
283.007

@<SCITEGIC>MOL_PROPERTY
W
SciTegic.value.DoubleValue
-37.298

@<SCITEGIC>MOL_PROPERTY
W(PB)
SciTegic.value.DoubleValue
-43.282

@<SCITEGIC>MOL_PROPERTY
W(SA)
SciTegic.value.DoubleValue
5.983

@<SCITEGIC>MOL_PROPERTY
Valence
SciTegic.value.DoubleValue
152.350

@<SCITEGIC>MOL_PROPERTY
Coulomb
SciTegic.value.DoubleValue
151.635

@<SCITEGIC>MOL_PROPERTY
VdW
SciTegic.value.DoubleValue
-20.978

@<SCITEGIC>MOL_PROPERTY
VdW6
SciTegic.value.DoubleValue
-167.551

@<SCITEGIC>MOL_PROPERTY
VdW12
SciTegic.value.DoubleValue
146.573

@<SCITEGIC>MOL_PROPERTY
Bond
SciTegic.value.DoubleValue
4.569

@<SCITEGIC>MOL_PROPERTY
Angle
SciTegic.value.DoubleValue
12.337

@<SCITEGIC>MOL_PROPERTY
Pdih
SciTegic.value.DoubleValue
135.444

@<SCITEGIC>MOL_PROPERTY
Idih
SciTegic.value.DoubleValue
0.000

@<SCITEGIC>MOL_PROPERTY
Tether
SciTegic.value.DoubleValue
0.000

@<TRIPOS>MOLECULE
CD_guest-s16_fast_vm2_rndm.mol2 : feprocess host+ligand conformer 4
         139         145           2
SMALL
USER_CHARGES
 
@<TRIPOS>ATOM
       1    C1      16.233495   15.198333   21.559406 C.3        1 MOL1         0.2972
       2    H1      15.136535   15.161817   21.534023 H          1 MOL1         0.0751
       3    O1      16.726609   16.537091   21.363561 O.3        1 MOL1        -0.3740
       4    C2      16.748125   14.699099   22.928619 C.3        1 MOL1         0.1003
       5    H2      16.453701   13.646927   23.035321 H          1 MOL1         0.0783
       6    O2      16.169861   15.470089   23.994223 O.3        1 MOL1        -0.5519
       7    H3      15.765438   16.269801   23.577738 H          1 MOL1         0.3769
       8    C3      18.289677   14.780731   22.977259 C.3        1 MOL1         0.1053
       9    H4      18.566123   15.839718   22.943433 H          1 MOL1         0.0783
      10    O3      18.764011   14.204973   24.197219 O.3        1 MOL1        -0.5519
      11    H5      18.168441   14.565527   24.892112 H          1 MOL1         0.3769
      12    C4      18.943780   14.075759   21.763060 C.3        1 MOL1         0.1018
      13    H6      18.931280   12.992767   21.942979 H          1 MOL1         0.0783
      14    C5      18.246127   14.397883   20.409569 C.3        1 MOL1         0.1043
      15    H7      18.544120   15.410379   20.116595 H          1 MOL1         0.0783
      16    O4      16.800536   14.356183   20.534232 O.3        1 MOL1        -0.3740
      17    C6      18.670110   13.450815   19.262305 C.3        1 MOL1         0.0138
      18    H8      19.720932   13.652629   19.014288 H          1 MOL1         0.0794
      19    H9      18.073268   13.688156   18.371369 H          1 MOL1         0.0794
      20    O5      18.510915   12.071460   19.616913 O.3        1 MOL1        -0.5486
      21    H10     18.753972   11.532598   18.832691 H          1 MOL1         0.3769
      22    C7      15.277345   20.267695   20.127038 C.3        1 MOL1         0.2972
      23    H11     14.707459   21.054336   19.615949 H          1 MOL1         0.0751
      24    O6      16.402928   20.810141   20.843512 O.3        1 MOL1        -0.3740
      25    C8      14.382183   19.492511   21.133329 C.3        1 MOL1         0.1003
      26    H12     13.557896   19.050040   20.559035 H          1 MOL1         0.0783
      27    O7      13.834807   20.363554   22.135387 O.3        1 MOL1        -0.5519
      28    H13     14.592962   20.840437   22.559457 H          1 MOL1         0.3769
      29    C9      15.174461   18.336383   21.793935 C.3        1 MOL1         0.1053
      30    H14     15.975366   18.772130   22.407403 H          1 MOL1         0.0783
      31    O8      14.298471   17.559838   22.618297 O.3        1 MOL1        -0.5519
      32    H15     13.755309   18.219006   23.105874 H          1 MOL1         0.3769
      33    C10     15.824522   17.442892   20.709207 C.3        1 MOL1         0.1018
      34    H16     15.033833   16.907919   20.166547 H          1 MOL1         0.0783
      35    C11     16.647474   18.283519   19.698066 C.3        1 MOL1         0.1043
      36    H17     17.491611   18.739843   20.230548 H          1 MOL1         0.0783
      37    O9      15.790004   19.321412   19.161111 O.3        1 MOL1        -0.3740
      38    C12     17.246336   17.469786   18.521688 C.3        1 MOL1         0.0138
      39    H18     18.244704   17.123513   18.817483 H          1 MOL1         0.0794
      40    H19     17.388533   18.143058   17.666075 H          1 MOL1         0.0794
      41    O10     16.438549   16.348252   18.138789 O.3        1 MOL1        -0.5486
      42    H20     16.458069   15.706571   18.886042 H          1 MOL1         0.3769
      43    C13     18.351834   24.288842   21.827166 C.3        1 MOL1         0.2972
      44    H21     18.692499   25.307723   22.050137 H          1 MOL1         0.0751
      45    O11     19.439071   23.344671   21.807026 O.3        1 MOL1        -0.3740
      46    C14     17.334674   23.815070   22.892816 C.3        1 MOL1         0.1003
      47    H22     16.457755   24.472621   22.830739 H          1 MOL1         0.0783
      48    O12     17.895669   23.898070   24.212723 O.3        1 MOL1        -0.5519
      49    H23     18.869543   23.740008   24.129997 H          1 MOL1         0.3769
      50    C15     16.872134   22.370786   22.590562 C.3        1 MOL1         0.1053
      51    H24     17.732725   21.704687   22.725965 H          1 MOL1         0.0783
      52    O13     15.834613   22.004519   23.505453 O.3        1 MOL1        -0.5519
      53    H25     16.161035   22.297143   24.385829 H          1 MOL1         0.3769
      54    C16     16.372889   22.221163   21.130949 C.3        1 MOL1         0.1018
      55    H26     15.356995   22.633392   21.067737 H          1 MOL1         0.0783
      56    C17     17.301717   22.915742   20.091084 C.3        1 MOL1         0.1043
      57    H27     18.202905   22.298219   19.980044 H          1 MOL1         0.0783
      58    O14     17.690888   24.237731   20.546514 O.3        1 MOL1        -0.3740
      59    C18     16.668666   23.050075   18.685343 C.3        1 MOL1         0.0138
      60    H28     16.619478   22.052517   18.228142 H          1 MOL1         0.0794
      61    H29     17.332020   23.662371   18.059894 H          1 MOL1         0.0794
      62    O15     15.357962   23.627480   18.734785 O.3        1 MOL1        -0.5486
      63    H30     15.054669   23.758099   17.809771 H          1 MOL1         0.3769
      64    C19     23.513975   22.797078   21.850881 C.3        1 MOL1         0.2972
      65    H31     24.608143   22.886515   21.853842 H          1 MOL1         0.0751
      66    O16     23.093738   21.421580   21.758866 O.3        1 MOL1        -0.3740
      67    C20     22.937144   23.391856   23.157344 C.3        1 MOL1         0.1003
      68    H32     23.208713   24.455090   23.187634 H          1 MOL1         0.0783
      69    O17     23.492461   22.724926   24.302309 O.3        1 MOL1        -0.5519
      70    H33     23.888860   21.879419   23.976529 H          1 MOL1         0.3769
      71    C21     21.395679   23.287381   23.166418 C.3        1 MOL1         0.1053
      72    H34     21.133234   22.223925   23.221611 H          1 MOL1         0.0783
      73    O18     20.875123   23.967484   24.311902 O.3        1 MOL1        -0.5519
      74    H35     21.452622   23.684303   25.056169 H          1 MOL1         0.3769
      75    C22     20.775286   23.871218   21.872778 C.3        1 MOL1         0.1018
      76    H36     20.794636   24.966913   21.931141 H          1 MOL1         0.0783
      77    C23     21.504682   23.395763   20.584931 C.3        1 MOL1         0.1043
      78    H37     21.248216   22.341869   20.431208 H          1 MOL1         0.0783
      79    O19     22.943127   23.513077   20.734846 O.3        1 MOL1        -0.3740
      80    C24     21.074015   24.149915   19.303055 C.3        1 MOL1         0.0138
      81    H38     20.057611   23.833764   19.033060 H          1 MOL1         0.0794
      82    H39     21.735755   23.844553   18.481531 H          1 MOL1         0.0794
      83    O20     21.112581   25.573120   19.459747 O.3        1 MOL1        -0.5486
      84    H40     20.276843   25.845288   19.895156 H          1 MOL1         0.3769
      85    C25     24.724963   17.687186   20.774000 C.3        1 MOL1         0.2972
      86    H41     25.374517   16.906192   20.358043 H          1 MOL1         0.0751
      87    O21     23.529456   17.133347   21.354905 O.3        1 MOL1        -0.3740
      88    C26     25.458735   18.475973   21.891341 C.3        1 MOL1         0.1003
      89    H42     26.366194   18.906069   21.448010 H          1 MOL1         0.0783
      90    O22     25.828528   17.608084   22.975556 O.3        1 MOL1        -0.5519
      91    H43     25.040719   17.045428   23.186341 H          1 MOL1         0.3769
      92    C27     24.581381   19.642741   22.411452 C.3        1 MOL1         0.1053
      93    H44     23.708801   19.216516   22.925529 H          1 MOL1         0.0783
      94    O23     25.337616   20.445332   23.324326 O.3        1 MOL1        -0.5519
      95    H45     25.798517   19.802324   23.908525 H          1 MOL1         0.3769
      96    C28     24.073888   20.509803   21.234099 C.3        1 MOL1         0.1018
      97    H46     24.928403   21.038105   20.790537 H          1 MOL1         0.0783
      98    C29     23.398677   19.643532   20.137844 C.3        1 MOL1         0.1043
      99    H47     22.500433   19.175843   20.559357 H          1 MOL1         0.0783
     100    O24     24.333458   18.614237   19.735924 O.3        1 MOL1        -0.3740
     101    C30     22.949788   20.427743   18.877570 C.3        1 MOL1         0.0138
     102    H48     21.923788   20.781769   19.036841 H          1 MOL1         0.0794
     103    H49     22.914206   19.732456   18.028320 H          1 MOL1         0.0794
     104    O25     23.800305   21.539260   18.567992 O.3        1 MOL1        -0.5486
     105    H50     23.639271   22.231249   19.251157 H          1 MOL1         0.3769
     106    C31     21.351634   13.638796   21.599348 C.3        1 MOL1         0.2972
     107    H51     20.977126   12.607259   21.609913 H          1 MOL1         0.0751
     108    O26     20.282373   14.604195   21.674978 O.3        1 MOL1        -0.3740
     109    C32     22.302261   13.888898   22.796507 C.3        1 MOL1         0.1003
     110    H52     23.163855   13.218626   22.679780 H          1 MOL1         0.0783
     111    O27     21.652357   13.605946   24.045928 O.3        1 MOL1        -0.5519
     112    H53     20.726230   13.952778   23.988410 H          1 MOL1         0.3769
     113    C33     22.823908   15.345325   22.771381 C.3        1 MOL1         0.1053
     114    H54     21.973273   16.015639   22.950110 H          1 MOL1         0.0783
     115    O28     23.800325   15.525097   23.802534 O.3        1 MOL1        -0.5519
     116    H55     23.410013   15.100030   24.598748 H          1 MOL1         0.3769
     117    C34     23.445993   15.697154   21.397217 C.3        1 MOL1         0.1018
     118    H56     24.437057   15.227334   21.343373 H          1 MOL1         0.0783
     119    C35     22.572162   15.239483   20.192656 C.3        1 MOL1         0.1043
     120    H57     21.706900   15.909423   20.121529 H          1 MOL1         0.0783
     121    O29     22.103445   13.882857   20.392841 O.3        1 MOL1        -0.3740
     122    C36     23.306047   15.300971   18.831382 C.3        1 MOL1         0.0138
     123    H58     23.423873   16.354546   18.545056 H          1 MOL1         0.0794
     124    H59     22.670980   14.827762   18.070590 H          1 MOL1         0.0794
     125    O30     24.588445   14.662094   18.876997 O.3        1 MOL1        -0.5486
     126    H60     24.961177   14.678205   17.968541 H          1 MOL1         0.3769
     127    C1      19.857048   19.799838   23.602063 C.3        1 MOL1        -0.1693
     128    H1      20.835002   19.934107   24.083017 H          1 MOL1         0.0829
     129    H2      19.134880   20.466660   24.086506 H          1 MOL1         0.0829
     130    C2      19.410775   18.311486   23.431403 C.3        1 MOL1        -0.1768
     131    H3      18.338350   18.175452   23.243433 H          1 MOL1         0.0829
     132    H4      19.723645   17.620500   24.221635 H          1 MOL1         0.0829
     133    C3      20.298064   18.328836   22.150686 C.3        1 MOL1         0.1211
     134    H5      21.366316   18.180855   22.352792 H          1 MOL1         0.0786
     135    C4      19.887137   19.825821   22.038083 C.3        1 MOL1        -0.1768
     136    H6      18.916692   19.996978   21.560005 H          1 MOL1         0.0829
     137    H7      20.624480   20.486473   21.578243 H          1 MOL1         0.0829
     138    O1      19.871681   17.501885   21.093850 O.3        1 MOL1        -0.5515
     139    H8      20.005035   16.573293   21.381314 H          1 MOL1         0.3773
@<TRIPOS>BOND
    1     1     2    1
    2     1     3    1
    3     1     4    1
    4     4     5    1
    5     4     6    1
    6     6     7    1
    7     4     8    1
    8     8     9    1
    9     8    10    1
   10    10    11    1
   11     8    12    1
   12    12    13    1
   13    12    14    1
   14    14    15    1
   15     1    16    1
   16    14    16    1
   17    14    17    1
   18    17    18    1
   19    17    19    1
   20    17    20    1
   21    20    21    1
   22    22    23    1
   23    22    24    1
   24    22    25    1
   25    25    26    1
   26    25    27    1
   27    27    28    1
   28    25    29    1
   29    29    30    1
   30    29    31    1
   31    31    32    1
   32     3    33    1
   33    29    33    1
   34    33    34    1
   35    33    35    1
   36    35    36    1
   37    22    37    1
   38    35    37    1
   39    35    38    1
   40    38    39    1
   41    38    40    1
   42    38    41    1
   43    41    42    1
   44    43    44    1
   45    43    45    1
   46    43    46    1
   47    46    47    1
   48    46    48    1
   49    48    49    1
   50    46    50    1
   51    50    51    1
   52    50    52    1
   53    52    53    1
   54    24    54    1
   55    50    54    1
   56    54    55    1
   57    54    56    1
   58    56    57    1
   59    43    58    1
   60    56    58    1
   61    56    59    1
   62    59    60    1
   63    59    61    1
   64    59    62    1
   65    62    63    1
   66    64    65    1
   67    64    66    1
   68    64    67    1
   69    67    68    1
   70    67    69    1
   71    69    70    1
   72    67    71    1
   73    71    72    1
   74    71    73    1
   75    73    74    1
   76    45    75    1
   77    71    75    1
   78    75    76    1
   79    75    77    1
   80    77    78    1
   81    64    79    1
   82    77    79    1
   83    77    80    1
   84    80    81    1
   85    80    82    1
   86    80    83    1
   87    83    84    1
   88    85    86    1
   89    85    87    1
   90    85    88    1
   91    88    89    1
   92    88    90    1
   93    90    91    1
   94    88    92    1
   95    92    93    1
   96    92    94    1
   97    94    95    1
   98    66    96    1
   99    92    96    1
  100    96    97    1
  101    96    98    1
  102    98    99    1
  103    85   100    1
  104    98   100    1
  105    98   101    1
  106   101   102    1
  107   101   103    1
  108   101   104    1
  109   104   105    1
  110   106   107    1
  111    12   108    1
  112   106   108    1
  113   106   109    1
  114   109   110    1
  115   109   111    1
  116   111   112    1
  117   109   113    1
  118   113   114    1
  119   113   115    1
  120   115   116    1
  121    87   117    1
  122   113   117    1
  123   117   118    1
  124   117   119    1
  125   119   120    1
  126   106   121    1
  127   119   121    1
  128   119   122    1
  129   122   123    1
  130   122   124    1
  131   122   125    1
  132   125   126    1
  133   127   128    1
  134   127   129    1
  135   127   130    1
  136   130   131    1
  137   130   132    1
  138   130   133    1
  139   133   134    1
  140   127   135    1
  141   133   135    1
  142   135   136    1
  143   135   137    1
  144   133   138    1
  145   138   139    1
@<TRIPOS>SUBSTRUCTURE
       1 MOL1            1 RESIDUE      1      MOL     
       2 MOL1          139 RESIDUE      1      MOL     
@<SCITEGIC>MOL_PROPERTY
feprocess Rank
SciTegic.value.IntegerValue
4

@<SCITEGIC>MOL_PROPERTY
Conf_Id
SciTegic.value.IntegerValue
712

@<SCITEGIC>MOL_PROPERTY
Probability
SciTegic.value.DoubleValue
6.33

@<SCITEGIC>MOL_PROPERTY
G
SciTegic.value.DoubleValue
545.695

@<SCITEGIC>MOL_PROPERTY
E
SciTegic.value.DoubleValue
367.731

@<SCITEGIC>MOL_PROPERTY
-TS
SciTegic.value.DoubleValue
177.964

@<SCITEGIC>MOL_PROPERTY
U+W
SciTegic.value.DoubleValue
245.220

@<SCITEGIC>MOL_PROPERTY
U
SciTegic.value.DoubleValue
281.296

@<SCITEGIC>MOL_PROPERTY
W
SciTegic.value.DoubleValue
-36.077

@<SCITEGIC>MOL_PROPERTY
W(PB)
SciTegic.value.DoubleValue
-42.073

@<SCITEGIC>MOL_PROPERTY
W(SA)
SciTegic.value.DoubleValue
5.996

@<SCITEGIC>MOL_PROPERTY
Valence
SciTegic.value.DoubleValue
153.312

@<SCITEGIC>MOL_PROPERTY
Coulomb
SciTegic.value.DoubleValue
150.629

@<SCITEGIC>MOL_PROPERTY
VdW
SciTegic.value.DoubleValue
-22.644

@<SCITEGIC>MOL_PROPERTY
VdW6
SciTegic.value.DoubleValue
-168.662

@<SCITEGIC>MOL_PROPERTY
VdW12
SciTegic.value.DoubleValue
146.017

@<SCITEGIC>MOL_PROPERTY
Bond
SciTegic.value.DoubleValue
4.454

@<SCITEGIC>MOL_PROPERTY
Angle
SciTegic.value.DoubleValue
11.523

@<SCITEGIC>MOL_PROPERTY
Pdih
SciTegic.value.DoubleValue
137.335

@<SCITEGIC>MOL_PROPERTY
Idih
SciTegic.value.DoubleValue
0.000

@<SCITEGIC>MOL_PROPERTY
Tether
SciTegic.value.DoubleValue
0.000

@<TRIPOS>MOLECULE
CD_guest-s16_fast_vm2_rndm.mol2 : feprocess host+ligand conformer 5
         139         145           2
SMALL
USER_CHARGES
 
@<TRIPOS>ATOM
       1    C1      16.342083   15.320093   20.592401 C.3        1 MOL1         0.2972
       2    H1      15.314299   15.185217   20.231249 H          1 MOL1         0.0751
       3    O1      16.552610   16.645242   21.118432 O.3        1 MOL1        -0.3740
       4    C2      16.679360   14.296536   21.709761 C.3        1 MOL1         0.1003
       5    H2      16.561269   13.294192   21.277932 H          1 MOL1         0.0783
       6    O2      15.787989   14.432628   22.828039 O.3        1 MOL1        -0.5519
       7    H3      15.790070   15.386765   23.095848 H          1 MOL1         0.3769
       8    C3      18.151029   14.444005   22.173947 C.3        1 MOL1         0.1053
       9    H4      18.250305   15.410208   22.682029 H          1 MOL1         0.0783
      10    O3      18.465594   13.388216   23.089500 O.3        1 MOL1        -0.5519
      11    H5      17.675426   13.314127   23.671323 H          1 MOL1         0.3769
      12    C4      19.123145   14.430803   20.962958 C.3        1 MOL1         0.1018
      13    H6      19.184847   13.409767   20.564707 H          1 MOL1         0.0783
      14    C5      18.662705   15.389784   19.833187 C.3        1 MOL1         0.1043
      15    H7      18.754992   16.421459   20.196381 H          1 MOL1         0.0783
      16    O4      17.278027   15.119260   19.510705 O.3        1 MOL1        -0.3740
      17    C6      19.511889   15.294816   18.539985 C.3        1 MOL1         0.0138
      18    H8      20.423036   15.890781   18.680045 H          1 MOL1         0.0794
      19    H9      18.950206   15.757446   17.717614 H          1 MOL1         0.0794
      20    O5      19.867673   13.949099   18.199628 O.3        1 MOL1        -0.5486
      21    H10     20.518980   13.641723   18.867694 H          1 MOL1         0.3769
      22    C7      14.745991   20.294722   21.702744 C.3        1 MOL1         0.2972
      23    H11     14.074223   21.149255   21.856160 H          1 MOL1         0.0751
      24    O6      16.112869   20.714629   21.534913 O.3        1 MOL1        -0.3740
      25    C8      14.685089   19.351260   22.926774 C.3        1 MOL1         0.1003
      26    H12     13.656684   18.976325   23.009967 H          1 MOL1         0.0783
      27    O7      15.033675   20.063230   24.125238 O.3        1 MOL1        -0.5519
      28    H13     15.520088   20.876758   23.844387 H          1 MOL1         0.3769
      29    C9      15.625612   18.142009   22.724043 C.3        1 MOL1         0.1053
      30    H14     16.654635   18.517347   22.724306 H          1 MOL1         0.0783
      31    O8      15.453372   17.211980   23.797840 O.3        1 MOL1        -0.5519
      32    H15     15.464624   17.762861   24.612382 H          1 MOL1         0.3769
      33    C10     15.376117   17.437996   21.368366 C.3        1 MOL1         0.1018
      34    H16     14.471932   16.821014   21.456873 H          1 MOL1         0.0783
      35    C11     15.236861   18.436546   20.182054 C.3        1 MOL1         0.1043
      36    H17     16.237730   18.827882   19.961429 H          1 MOL1         0.0783
      37    O9      14.364443   19.543215   20.531914 O.3        1 MOL1        -0.3740
      38    C12     14.704350   17.787659   18.882170 C.3        1 MOL1         0.0138
      39    H18     15.487592   17.137291   18.469808 H          1 MOL1         0.0794
      40    H19     14.518293   18.580343   18.144998 H          1 MOL1         0.0794
      41    O10     13.510931   17.027703   19.108922 O.3        1 MOL1        -0.5486
      42    H20     13.186838   16.714305   18.236361 H          1 MOL1         0.3769
      43    C13     18.459465   24.049323   20.773091 C.3        1 MOL1         0.2972
      44    H21     18.868787   25.020166   20.465171 H          1 MOL1         0.0751
      45    O11     19.503522   23.124221   21.144445 O.3        1 MOL1        -0.3740
      46    C14     17.471418   24.200615   21.961531 C.3        1 MOL1         0.1003
      47    H22     16.627692   24.806195   21.605740 H          1 MOL1         0.0783
      48    O12     18.074611   24.865309   23.080783 O.3        1 MOL1        -0.5519
      49    H23     18.862023   24.328441   23.351079 H          1 MOL1         0.3769
      50    C15     16.919345   22.813598   22.374695 C.3        1 MOL1         0.1053
      51    H24     17.754516   22.209084   22.754607 H          1 MOL1         0.0783
      52    O13     15.929464   22.965974   23.397443 O.3        1 MOL1        -0.5519
      53    H25     16.305163   23.626254   24.021752 H          1 MOL1         0.3769
      54    C16     16.306044   22.086500   21.152125 C.3        1 MOL1         0.1018
      55    H26     15.360692   22.580766   20.892551 H          1 MOL1         0.0783
      56    C17     17.245520   22.102490   19.913420 C.3        1 MOL1         0.1043
      57    H27     18.106157   21.458924   20.125522 H          1 MOL1         0.0783
      58    O14     17.715127   23.455205   19.683834 O.3        1 MOL1        -0.3740
      59    C18     16.604710   21.559564   18.608556 C.3        1 MOL1         0.0138
      60    H28     16.809645   20.483601   18.543994 H          1 MOL1         0.0794
      61    H29     17.106217   22.028218   17.751323 H          1 MOL1         0.0794
      62    O15     15.190830   21.779442   18.531402 O.3        1 MOL1        -0.5486
      63    H30     14.764229   21.141301   19.149453 H          1 MOL1         0.3769
      64    C19     23.510171   22.650256   21.963884 C.3        1 MOL1         0.2972
      65    H31     24.578907   22.750879   22.194073 H          1 MOL1         0.0751
      66    O16     23.161670   21.291493   21.634500 O.3        1 MOL1        -0.3740
      67    C20     22.665806   23.083405   23.183920 C.3        1 MOL1         0.1003
      68    H32     22.876799   24.143661   23.375106 H          1 MOL1         0.0783
      69    O17     23.015456   22.311786   24.344774 O.3        1 MOL1        -0.5519
      70    H33     23.574828   21.558633   24.032619 H          1 MOL1         0.3769
      71    C21     21.159734   22.939532   22.872761 C.3        1 MOL1         0.1053
      72    H34     20.948360   21.871850   22.743406 H          1 MOL1         0.0783
      73    O18     20.406853   23.448039   23.976875 O.3        1 MOL1        -0.5519
      74    H35     20.844500   23.066367   24.771076 H          1 MOL1         0.3769
      75    C22     20.771471   23.669991   21.560161 C.3        1 MOL1         0.1018
      76    H36     20.713973   24.748773   21.756985 H          1 MOL1         0.0783
      77    C23     21.768752   23.382783   20.399314 C.3        1 MOL1         0.1043
      78    H37     21.587224   22.356783   20.055319 H          1 MOL1         0.0783
      79    O19     23.145929   23.488264   20.847023 O.3        1 MOL1        -0.3740
      80    C24     21.575844   24.313225   19.178323 C.3        1 MOL1         0.0138
      81    H38     20.629156   24.050892   18.686732 H          1 MOL1         0.0794
      82    H39     22.382126   24.119562   18.458062 H          1 MOL1         0.0794
      83    O20     21.561757   25.696567   19.551951 O.3        1 MOL1        -0.5486
      84    H40     21.512047   26.227528   18.727147 H          1 MOL1         0.3769
      85    C25     25.008118   17.626380   20.876674 C.3        1 MOL1         0.2972
      86    H41     25.693832   16.830204   20.559372 H          1 MOL1         0.0751
      87    O21     23.713020   17.102105   21.226041 O.3        1 MOL1        -0.3740
      88    C26     25.576848   18.416952   22.088180 C.3        1 MOL1         0.1003
      89    H42     26.517082   18.877544   21.758057 H          1 MOL1         0.0783
      90    O22     25.851701   17.560416   23.206982 O.3        1 MOL1        -0.5519
      91    H43     25.000476   17.121235   23.459910 H          1 MOL1         0.3769
      92    C27     24.609974   19.556716   22.498419 C.3        1 MOL1         0.1053
      93    H44     23.682896   19.103984   22.875674 H          1 MOL1         0.0783
      94    O23     25.211288   20.353168   23.524430 O.3        1 MOL1        -0.5519
      95    H45     25.617337   19.707575   24.145596 H          1 MOL1         0.3769
      96    C28     24.262619   20.440541   21.273737 C.3        1 MOL1         0.1018
      97    H46     25.152627   21.020242   20.995193 H          1 MOL1         0.0783
      98    C29     23.812325   19.597624   20.051635 C.3        1 MOL1         0.1043
      99    H47     22.851288   19.124689   20.292143 H          1 MOL1         0.0783
     100    O24     24.806781   18.571921   19.799652 O.3        1 MOL1        -0.3740
     101    C30     23.588235   20.422795   18.756950 C.3        1 MOL1         0.0138
     102    H48     22.544837   20.762913   18.742240 H          1 MOL1         0.0794
     103    H49     23.718015   19.759700   17.891284 H          1 MOL1         0.0794
     104    O25     24.459265   21.556119   18.646387 O.3        1 MOL1        -0.5486
     105    H50     24.172858   22.211612   19.323484 H          1 MOL1         0.3769
     106    C31     21.319547   13.911553   21.898331 C.3        1 MOL1         0.2972
     107    H51     20.809675   12.960374   22.097772 H          1 MOL1         0.0751
     108    O26     20.409707   14.908479   21.392948 O.3        1 MOL1        -0.3740
     109    C32     21.962592   14.454308   23.195991 C.3        1 MOL1         0.1003
     110    H52     22.686619   13.706212   23.544154 H          1 MOL1         0.0783
     111    O27     20.960066   14.669568   24.205884 O.3        1 MOL1        -0.5519
     112    H53     20.191235   14.091806   23.977936 H          1 MOL1         0.3769
     113    C33     22.712413   15.777437   22.922636 C.3        1 MOL1         0.1053
     114    H54     21.949567   16.536037   22.734075 H          1 MOL1         0.0783
     115    O28     23.466613   16.150761   24.079541 O.3        1 MOL1        -0.5519
     116    H55     22.828068   16.102559   24.825754 H          1 MOL1         0.3769
     117    C34     23.629406   15.734467   21.672544 C.3        1 MOL1         0.1018
     118    H56     24.607607   15.327808   21.961115 H          1 MOL1         0.0783
     119    C35     23.032418   14.932473   20.478763 C.3        1 MOL1         0.1043
     120    H57     22.290881   15.573381   19.985491 H          1 MOL1         0.0783
     121    O29     22.371498   13.724652   20.930577 O.3        1 MOL1        -0.3740
     122    C36     24.079259   14.551764   19.404921 C.3        1 MOL1         0.0138
     123    H58     24.388663   15.465999   18.880642 H          1 MOL1         0.0794
     124    H59     23.599263   13.898301   18.664078 H          1 MOL1         0.0794
     125    O30     25.225395   13.904785   19.971443 O.3        1 MOL1        -0.5486
     126    H60     25.806374   13.624519   19.230577 H          1 MOL1         0.3769
     127    C1      19.356188   19.582908   21.807216 C.3        1 MOL1        -0.1693
     128    H1      18.462240   19.266341   21.255470 H          1 MOL1         0.0829
     129    H2      19.756676   20.489015   21.343168 H          1 MOL1         0.0829
     130    C2      20.394548   18.449448   22.067339 C.3        1 MOL1        -0.1768
     131    H3      20.479747   17.685716   21.288133 H          1 MOL1         0.0829
     132    H4      21.398786   18.806054   22.324932 H          1 MOL1         0.0829
     133    C3      19.504543   18.085432   23.295347 C.3        1 MOL1         0.1211
     134    H5      18.628737   17.474362   23.048140 H          1 MOL1         0.0786
     135    C4      19.195546   19.611043   23.364213 C.3        1 MOL1        -0.1768
     136    H6      19.950783   20.195698   23.902425 H          1 MOL1         0.0829
     137    H7      18.206866   19.884222   23.747049 H          1 MOL1         0.0829
     138    O1      20.182902   17.556519   24.412408 O.3        1 MOL1        -0.5515
     139    H8      20.363502   16.602918   24.241778 H          1 MOL1         0.3773
@<TRIPOS>BOND
    1     1     2    1
    2     1     3    1
    3     1     4    1
    4     4     5    1
    5     4     6    1
    6     6     7    1
    7     4     8    1
    8     8     9    1
    9     8    10    1
   10    10    11    1
   11     8    12    1
   12    12    13    1
   13    12    14    1
   14    14    15    1
   15     1    16    1
   16    14    16    1
   17    14    17    1
   18    17    18    1
   19    17    19    1
   20    17    20    1
   21    20    21    1
   22    22    23    1
   23    22    24    1
   24    22    25    1
   25    25    26    1
   26    25    27    1
   27    27    28    1
   28    25    29    1
   29    29    30    1
   30    29    31    1
   31    31    32    1
   32     3    33    1
   33    29    33    1
   34    33    34    1
   35    33    35    1
   36    35    36    1
   37    22    37    1
   38    35    37    1
   39    35    38    1
   40    38    39    1
   41    38    40    1
   42    38    41    1
   43    41    42    1
   44    43    44    1
   45    43    45    1
   46    43    46    1
   47    46    47    1
   48    46    48    1
   49    48    49    1
   50    46    50    1
   51    50    51    1
   52    50    52    1
   53    52    53    1
   54    24    54    1
   55    50    54    1
   56    54    55    1
   57    54    56    1
   58    56    57    1
   59    43    58    1
   60    56    58    1
   61    56    59    1
   62    59    60    1
   63    59    61    1
   64    59    62    1
   65    62    63    1
   66    64    65    1
   67    64    66    1
   68    64    67    1
   69    67    68    1
   70    67    69    1
   71    69    70    1
   72    67    71    1
   73    71    72    1
   74    71    73    1
   75    73    74    1
   76    45    75    1
   77    71    75    1
   78    75    76    1
   79    75    77    1
   80    77    78    1
   81    64    79    1
   82    77    79    1
   83    77    80    1
   84    80    81    1
   85    80    82    1
   86    80    83    1
   87    83    84    1
   88    85    86    1
   89    85    87    1
   90    85    88    1
   91    88    89    1
   92    88    90    1
   93    90    91    1
   94    88    92    1
   95    92    93    1
   96    92    94    1
   97    94    95    1
   98    66    96    1
   99    92    96    1
  100    96    97    1
  101    96    98    1
  102    98    99    1
  103    85   100    1
  104    98   100    1
  105    98   101    1
  106   101   102    1
  107   101   103    1
  108   101   104    1
  109   104   105    1
  110   106   107    1
  111    12   108    1
  112   106   108    1
  113   106   109    1
  114   109   110    1
  115   109   111    1
  116   111   112    1
  117   109   113    1
  118   113   114    1
  119   113   115    1
  120   115   116    1
  121    87   117    1
  122   113   117    1
  123   117   118    1
  124   117   119    1
  125   119   120    1
  126   106   121    1
  127   119   121    1
  128   119   122    1
  129   122   123    1
  130   122   124    1
  131   122   125    1
  132   125   126    1
  133   127   128    1
  134   127   129    1
  135   127   130    1
  136   130   131    1
  137   130   132    1
  138   130   133    1
  139   133   134    1
  140   127   135    1
  141   133   135    1
  142   135   136    1
  143   135   137    1
  144   133   138    1
  145   138   139    1
@<TRIPOS>SUBSTRUCTURE
       1 MOL1            1 RESIDUE      1      MOL     
       2 MOL1          139 RESIDUE      1      MOL     
@<SCITEGIC>MOL_PROPERTY
feprocess Rank
SciTegic.value.IntegerValue
5

@<SCITEGIC>MOL_PROPERTY
Conf_Id
SciTegic.value.IntegerValue
879

@<SCITEGIC>MOL_PROPERTY
Probability
SciTegic.value.DoubleValue
4.78

@<SCITEGIC>MOL_PROPERTY
G
SciTegic.value.DoubleValue
545.863

@<SCITEGIC>MOL_PROPERTY
E
SciTegic.value.DoubleValue
367.509

@<SCITEGIC>MOL_PROPERTY
-TS
SciTegic.value.DoubleValue
178.354

@<SCITEGIC>MOL_PROPERTY
U+W
SciTegic.value.DoubleValue
244.998

@<SCITEGIC>MOL_PROPERTY
U
SciTegic.value.DoubleValue
281.854

@<SCITEGIC>MOL_PROPERTY
W
SciTegic.value.DoubleValue
-36.857

@<SCITEGIC>MOL_PROPERTY
W(PB)
SciTegic.value.DoubleValue
-42.898

@<SCITEGIC>MOL_PROPERTY
W(SA)
SciTegic.value.DoubleValue
6.041

@<SCITEGIC>MOL_PROPERTY
Valence
SciTegic.value.DoubleValue
152.291

@<SCITEGIC>MOL_PROPERTY
Coulomb
SciTegic.value.DoubleValue
149.658

@<SCITEGIC>MOL_PROPERTY
VdW
SciTegic.value.DoubleValue
-20.094

@<SCITEGIC>MOL_PROPERTY
VdW6
SciTegic.value.DoubleValue
-168.276

@<SCITEGIC>MOL_PROPERTY
VdW12
SciTegic.value.DoubleValue
148.182

@<SCITEGIC>MOL_PROPERTY
Bond
SciTegic.value.DoubleValue
4.688

@<SCITEGIC>MOL_PROPERTY
Angle
SciTegic.value.DoubleValue
12.596

@<SCITEGIC>MOL_PROPERTY
Pdih
SciTegic.value.DoubleValue
135.007

@<SCITEGIC>MOL_PROPERTY
Idih
SciTegic.value.DoubleValue
0.000

@<SCITEGIC>MOL_PROPERTY
Tether
SciTegic.value.DoubleValue
0.000

@<TRIPOS>MOLECULE
CD_guest-s16_fast_vm2_rndm.mol2 : feprocess host+ligand conformer 6
         139         145           2
SMALL
USER_CHARGES
 
@<TRIPOS>ATOM
       1    C1      16.227999   15.316638   21.591648 C.3        1 MOL1         0.2972
       2    H1      15.139188   15.222269   21.696193 H          1 MOL1         0.0751
       3    O1      16.620392   16.676452   21.322540 O.3        1 MOL1        -0.3740
       4    C2      16.923145   14.861552   22.895612 C.3        1 MOL1         0.1003
       5    H2      16.679395   13.802270   23.049589 H          1 MOL1         0.0783
       6    O2      16.450418   15.626849   24.016447 O.3        1 MOL1        -0.5519
       7    H3      15.906564   16.366627   23.650319 H          1 MOL1         0.3769
       8    C3      18.456999   14.989719   22.761876 C.3        1 MOL1         0.1053
       9    H4      18.695974   16.056803   22.680054 H          1 MOL1         0.0783
      10    O3      19.076884   14.448047   23.931491 O.3        1 MOL1        -0.5519
      11    H5      18.561108   14.821674   24.681218 H          1 MOL1         0.3769
      12    C4      18.983545   14.275497   21.489938 C.3        1 MOL1         0.1018
      13    H6      19.006330   13.193531   21.676142 H          1 MOL1         0.0783
      14    C5      18.130754   14.590489   20.226099 C.3        1 MOL1         0.1043
      15    H7      18.358797   15.619568   19.921841 H          1 MOL1         0.0783
      16    O4      16.711044   14.490900   20.511482 O.3        1 MOL1        -0.3740
      17    C6      18.455083   13.676712   19.020369 C.3        1 MOL1         0.0138
      18    H8      19.453172   13.938323   18.643442 H          1 MOL1         0.0794
      19    H9      17.737270   13.887856   18.216306 H          1 MOL1         0.0794
      20    O5      18.417315   12.287865   19.371274 O.3        1 MOL1        -0.5486
      21    H10     18.557850   11.768926   18.549318 H          1 MOL1         0.3769
      22    C7      14.901484   20.364750   20.423820 C.3        1 MOL1         0.2972
      23    H11     14.277061   21.182117   20.040724 H          1 MOL1         0.0751
      24    O6      16.138432   20.855008   20.976134 O.3        1 MOL1        -0.3740
      25    C8      14.155945   19.536625   21.507075 C.3        1 MOL1         0.1003
      26    H12     13.279538   19.087742   21.021668 H          1 MOL1         0.0783
      27    O7      13.707807   20.355863   22.596942 O.3        1 MOL1        -0.5519
      28    H13     14.508420   20.782629   22.994439 H          1 MOL1         0.3769
      29    C9      15.055211   18.383386   22.020569 C.3        1 MOL1         0.1053
      30    H14     15.918299   18.822496   22.539361 H          1 MOL1         0.0783
      31    O8      14.315013   17.559741   22.927574 O.3        1 MOL1        -0.5519
      32    H15     13.816683   18.188532   23.496669 H          1 MOL1         0.3769
      33    C10     15.576051   17.534365   20.832967 C.3        1 MOL1         0.1018
      34    H16     14.737179   16.960010   20.418136 H          1 MOL1         0.0783
      35    C11     16.189604   18.408823   19.706974 C.3        1 MOL1         0.1043
      36    H17     17.112044   18.864864   20.087479 H          1 MOL1         0.0783
      37    O9      15.246564   19.453460   19.353498 O.3        1 MOL1        -0.3740
      38    C12     16.583413   17.619011   18.431003 C.3        1 MOL1         0.0138
      39    H18     17.617764   17.271057   18.547828 H          1 MOL1         0.0794
      40    H19     16.575006   18.307397   17.575450 H          1 MOL1         0.0794
      41    O10     15.730609   16.496443   18.170528 O.3        1 MOL1        -0.5486
      42    H20     15.911310   15.824059   18.866977 H          1 MOL1         0.3769
      43    C13     18.475547   23.943406   22.171107 C.3        1 MOL1         0.2972
      44    H21     18.958783   24.870701   22.504802 H          1 MOL1         0.0751
      45    O11     19.455353   22.951627   21.797653 O.3        1 MOL1        -0.3740
      46    C14     17.579334   23.386645   23.304371 C.3        1 MOL1         0.1003
      47    H22     16.811054   24.141765   23.515086 H          1 MOL1         0.0783
      48    O12     18.344758   23.141254   24.493104 O.3        1 MOL1        -0.5519
      49    H23     18.964708   22.401462   24.275542 H          1 MOL1         0.3769
      50    C15     16.873641   22.086430   22.867716 C.3        1 MOL1         0.1053
      51    H24     17.645895   21.316836   22.787075 H          1 MOL1         0.0783
      52    O13     15.927613   21.698621   23.868405 O.3        1 MOL1        -0.5519
      53    H25     16.420262   21.752694   24.717767 H          1 MOL1         0.3769
      54    C16     16.179189   22.201871   21.487433 C.3        1 MOL1         0.1018
      55    H26     15.177322   22.630728   21.621535 H          1 MOL1         0.0783
      56    C17     16.993991   23.020456   20.444696 C.3        1 MOL1         0.1043
      57    H27     17.777886   22.355965   20.069600 H          1 MOL1         0.0783
      58    O14     17.625553   24.189589   21.029961 O.3        1 MOL1        -0.3740
      59    C18     16.157255   23.466488   19.222133 C.3        1 MOL1         0.0138
      60    H28     15.900871   22.576418   18.631759 H          1 MOL1         0.0794
      61    H29     16.778129   24.111196   18.585640 H          1 MOL1         0.0794
      62    O15     14.961680   24.153467   19.610532 O.3        1 MOL1        -0.5486
      63    H30     14.521033   24.471849   18.792391 H          1 MOL1         0.3769
      64    C19     23.464619   22.594322   20.761972 C.3        1 MOL1         0.2972
      65    H31     24.477439   22.712424   20.355572 H          1 MOL1         0.0751
      66    O16     23.259931   21.277261   21.308678 O.3        1 MOL1        -0.3740
      67    C20     23.184699   23.636657   21.874116 C.3        1 MOL1         0.1003
      68    H32     23.296897   24.629543   21.419432 H          1 MOL1         0.0783
      69    O17     24.122879   23.508604   22.954704 O.3        1 MOL1        -0.5519
      70    H33     24.099879   22.565093   23.256499 H          1 MOL1         0.3769
      71    C21     21.732318   23.520650   22.404697 C.3        1 MOL1         0.1053
      72    H34     21.652913   22.590369   22.981825 H          1 MOL1         0.0783
      73    O18     21.468557   24.640817   23.254870 O.3        1 MOL1        -0.5519
      74    H35     22.225185   24.676383   23.880247 H          1 MOL1         0.3769
      75    C22     20.688923   23.468381   21.253520 C.3        1 MOL1         0.1018
      76    H36     20.562035   24.484095   20.857077 H          1 MOL1         0.0783
      77    C23     21.115975   22.521672   20.094182 C.3        1 MOL1         0.1043
      78    H37     21.043092   21.486059   20.448327 H          1 MOL1         0.0783
      79    O19     22.486213   22.801147   19.722734 O.3        1 MOL1        -0.3740
      80    C24     20.242294   22.619207   18.816259 C.3        1 MOL1         0.0138
      81    H38     19.436085   21.879519   18.888405 H          1 MOL1         0.0794
      82    H39     20.853306   22.325644   17.952182 H          1 MOL1         0.0794
      83    O20     19.691238   23.925651   18.602207 O.3        1 MOL1        -0.5486
      84    H40     19.093666   24.124369   19.358932 H          1 MOL1         0.3769
      85    C25     25.054948   17.632898   21.939056 C.3        1 MOL1         0.2972
      86    H41     25.726123   16.780143   22.104120 H          1 MOL1         0.0751
      87    O21     23.687371   17.210519   21.776654 O.3        1 MOL1        -0.3740
      88    C26     25.117913   18.590633   23.151782 C.3        1 MOL1         0.1003
      89    H42     26.148745   18.959060   23.234175 H          1 MOL1         0.0783
      90    O22     24.760230   17.894240   24.356697 O.3        1 MOL1        -0.5519
      91    H43     24.235625   17.101733   24.084623 H          1 MOL1         0.3769
      92    C27     24.187304   19.804941   22.934099 C.3        1 MOL1         0.1053
      93    H44     23.155318   19.438723   22.942865 H          1 MOL1         0.0783
      94    O23     24.369929   20.747612   23.995245 O.3        1 MOL1        -0.5519
      95    H45     24.367451   20.206414   24.816313 H          1 MOL1         0.3769
      96    C28     24.436658   20.488677   21.567924 C.3        1 MOL1         0.1018
      97    H46     25.341439   21.106402   21.644524 H          1 MOL1         0.0783
      98    C29     24.570000   19.472686   20.396136 C.3        1 MOL1         0.1043
      99    H47     23.567286   19.080881   20.184540 H          1 MOL1         0.0783
     100    O24     25.440006   18.369110   20.759976 O.3        1 MOL1        -0.3740
     101    C30     25.100345   20.100474   19.085060 C.3        1 MOL1         0.0138
     102    H48     24.317079   20.745615   18.664608 H          1 MOL1         0.0794
     103    H49     25.283436   19.296129   18.359871 H          1 MOL1         0.0794
     104    O25     26.295476   20.861890   19.296990 O.3        1 MOL1        -0.5486
     105    H50     26.619457   21.159034   18.418728 H          1 MOL1         0.3769
     106    C31     21.354564   13.877780   20.937255 C.3        1 MOL1         0.2972
     107    H51     20.960009   12.902523   20.624010 H          1 MOL1         0.0751
     108    O26     20.296749   14.811416   21.237642 O.3        1 MOL1        -0.3740
     109    C32     22.264301   13.745478   22.188084 C.3        1 MOL1         0.1003
     110    H52     23.118313   13.116463   21.905039 H          1 MOL1         0.0783
     111    O27     21.574178   13.126122   23.283698 O.3        1 MOL1        -0.5519
     112    H53     20.753107   13.654654   23.452254 H          1 MOL1         0.3769
     113    C33     22.811205   15.134741   22.600864 C.3        1 MOL1         0.1053
     114    H54     21.962991   15.753336   22.923467 H          1 MOL1         0.0783
     115    O28     23.742271   14.993068   23.678935 O.3        1 MOL1        -0.5519
     116    H55     23.321456   14.356574   24.299086 H          1 MOL1         0.3769
     117    C34     23.497166   15.834869   21.401342 C.3        1 MOL1         0.1018
     118    H56     24.448372   15.324610   21.200777 H          1 MOL1         0.0783
     119    C35     22.623072   15.805326   20.116139 C.3        1 MOL1         0.1043
     120    H57     21.754853   16.453518   20.275688 H          1 MOL1         0.0783
     121    O29     22.161884   14.450957   19.882875 O.3        1 MOL1        -0.3740
     122    C36     23.330315   16.323675   18.836135 C.3        1 MOL1         0.0138
     123    H58     23.142610   17.400974   18.748040 H          1 MOL1         0.0794
     124    H59     22.862978   15.849712   17.962668 H          1 MOL1         0.0794
     125    O30     24.742847   16.084466   18.827502 O.3        1 MOL1        -0.5486
     126    H60     25.150896   16.744931   19.434718 H          1 MOL1         0.3769
     127    C1      20.249681   18.342323   21.588652 C.3        1 MOL1        -0.1693
     128    H1      21.119607   18.614684   20.977151 H          1 MOL1         0.0829
     129    H2      19.795335   17.436120   21.175896 H          1 MOL1         0.0829
     130    C2      19.265528   19.516289   21.883372 C.3        1 MOL1        -0.1768
     131    H3      19.134521   20.255009   21.087089 H          1 MOL1         0.0829
     132    H4      18.277323   19.199407   22.237525 H          1 MOL1         0.0829
     133    C3      20.268713   19.893493   23.015653 C.3        1 MOL1         0.1211
     134    H5      21.144368   20.449520   22.660491 H          1 MOL1         0.0786
     135    C4      20.503606   18.357155   23.133558 C.3        1 MOL1        -0.1768
     136    H6      21.497356   18.042592   23.466086 H          1 MOL1         0.0829
     137    H7      19.752677   17.828576   23.733384 H          1 MOL1         0.0829
     138    O1      19.717253   20.517676   24.152293 O.3        1 MOL1        -0.5515
     139    H8      20.349916   20.378844   24.886337 H          1 MOL1         0.3773
@<TRIPOS>BOND
    1     1     2    1
    2     1     3    1
    3     1     4    1
    4     4     5    1
    5     4     6    1
    6     6     7    1
    7     4     8    1
    8     8     9    1
    9     8    10    1
   10    10    11    1
   11     8    12    1
   12    12    13    1
   13    12    14    1
   14    14    15    1
   15     1    16    1
   16    14    16    1
   17    14    17    1
   18    17    18    1
   19    17    19    1
   20    17    20    1
   21    20    21    1
   22    22    23    1
   23    22    24    1
   24    22    25    1
   25    25    26    1
   26    25    27    1
   27    27    28    1
   28    25    29    1
   29    29    30    1
   30    29    31    1
   31    31    32    1
   32     3    33    1
   33    29    33    1
   34    33    34    1
   35    33    35    1
   36    35    36    1
   37    22    37    1
   38    35    37    1
   39    35    38    1
   40    38    39    1
   41    38    40    1
   42    38    41    1
   43    41    42    1
   44    43    44    1
   45    43    45    1
   46    43    46    1
   47    46    47    1
   48    46    48    1
   49    48    49    1
   50    46    50    1
   51    50    51    1
   52    50    52    1
   53    52    53    1
   54    24    54    1
   55    50    54    1
   56    54    55    1
   57    54    56    1
   58    56    57    1
   59    43    58    1
   60    56    58    1
   61    56    59    1
   62    59    60    1
   63    59    61    1
   64    59    62    1
   65    62    63    1
   66    64    65    1
   67    64    66    1
   68    64    67    1
   69    67    68    1
   70    67    69    1
   71    69    70    1
   72    67    71    1
   73    71    72    1
   74    71    73    1
   75    73    74    1
   76    45    75    1
   77    71    75    1
   78    75    76    1
   79    75    77    1
   80    77    78    1
   81    64    79    1
   82    77    79    1
   83    77    80    1
   84    80    81    1
   85    80    82    1
   86    80    83    1
   87    83    84    1
   88    85    86    1
   89    85    87    1
   90    85    88    1
   91    88    89    1
   92    88    90    1
   93    90    91    1
   94    88    92    1
   95    92    93    1
   96    92    94    1
   97    94    95    1
   98    66    96    1
   99    92    96    1
  100    96    97    1
  101    96    98    1
  102    98    99    1
  103    85   100    1
  104    98   100    1
  105    98   101    1
  106   101   102    1
  107   101   103    1
  108   101   104    1
  109   104   105    1
  110   106   107    1
  111    12   108    1
  112   106   108    1
  113   106   109    1
  114   109   110    1
  115   109   111    1
  116   111   112    1
  117   109   113    1
  118   113   114    1
  119   113   115    1
  120   115   116    1
  121    87   117    1
  122   113   117    1
  123   117   118    1
  124   117   119    1
  125   119   120    1
  126   106   121    1
  127   119   121    1
  128   119   122    1
  129   122   123    1
  130   122   124    1
  131   122   125    1
  132   125   126    1
  133   127   128    1
  134   127   129    1
  135   127   130    1
  136   130   131    1
  137   130   132    1
  138   130   133    1
  139   133   134    1
  140   127   135    1
  141   133   135    1
  142   135   136    1
  143   135   137    1
  144   133   138    1
  145   138   139    1
@<TRIPOS>SUBSTRUCTURE
       1 MOL1            1 RESIDUE      1      MOL     
       2 MOL1          139 RESIDUE      1      MOL     
@<SCITEGIC>MOL_PROPERTY
feprocess Rank
SciTegic.value.IntegerValue
6

@<SCITEGIC>MOL_PROPERTY
Conf_Id
SciTegic.value.IntegerValue
991

@<SCITEGIC>MOL_PROPERTY
Probability
SciTegic.value.DoubleValue
4.03

@<SCITEGIC>MOL_PROPERTY
G
SciTegic.value.DoubleValue
545.965

@<SCITEGIC>MOL_PROPERTY
E
SciTegic.value.DoubleValue
366.810

@<SCITEGIC>MOL_PROPERTY
-TS
SciTegic.value.DoubleValue
179.155

@<SCITEGIC>MOL_PROPERTY
U+W
SciTegic.value.DoubleValue
244.298

@<SCITEGIC>MOL_PROPERTY
U
SciTegic.value.DoubleValue
282.437

@<SCITEGIC>MOL_PROPERTY
W
SciTegic.value.DoubleValue
-38.139

@<SCITEGIC>MOL_PROPERTY
W(PB)
SciTegic.value.DoubleValue
-44.098

@<SCITEGIC>MOL_PROPERTY
W(SA)
SciTegic.value.DoubleValue
5.959

@<SCITEGIC>MOL_PROPERTY
Valence
SciTegic.value.DoubleValue
152.141

@<SCITEGIC>MOL_PROPERTY
Coulomb
SciTegic.value.DoubleValue
151.641

@<SCITEGIC>MOL_PROPERTY
VdW
SciTegic.value.DoubleValue
-21.345

@<SCITEGIC>MOL_PROPERTY
VdW6
SciTegic.value.DoubleValue
-170.354

@<SCITEGIC>MOL_PROPERTY
VdW12
SciTegic.value.DoubleValue
149.009

@<SCITEGIC>MOL_PROPERTY
Bond
SciTegic.value.DoubleValue
4.695

@<SCITEGIC>MOL_PROPERTY
Angle
SciTegic.value.DoubleValue
13.171

@<SCITEGIC>MOL_PROPERTY
Pdih
SciTegic.value.DoubleValue
134.274

@<SCITEGIC>MOL_PROPERTY
Idih
SciTegic.value.DoubleValue
0.000

@<SCITEGIC>MOL_PROPERTY
Tether
SciTegic.value.DoubleValue
0.000

@<TRIPOS>MOLECULE
CD_guest-s16_fast_vm2_rndm.mol2 : feprocess host+ligand conformer 7
         139         145           2
SMALL
USER_CHARGES
 
@<TRIPOS>ATOM
       1    C1      16.245633   15.334422   21.570406 C.3        1 MOL1         0.2972
       2    H1      15.161733   15.242950   21.716913 H          1 MOL1         0.0751
       3    O1      16.612115   16.649798   21.104780 O.3        1 MOL1        -0.3740
       4    C2      16.992603   15.049347   22.896606 C.3        1 MOL1         0.1003
       5    H2      16.762227   14.015953   23.186889 H          1 MOL1         0.0783
       6    O2      16.570378   15.941813   23.941398 O.3        1 MOL1        -0.5519
       7    H3      15.776349   16.426174   23.607423 H          1 MOL1         0.3769
       8    C3      18.518535   15.166993   22.689934 C.3        1 MOL1         0.1053
       9    H4      18.734319   16.217472   22.466678 H          1 MOL1         0.0783
      10    O3      19.183070   14.784781   23.897339 O.3        1 MOL1        -0.5519
      11    H5      18.677103   15.238471   24.608816 H          1 MOL1         0.3769
      12    C4      19.016067   14.310746   21.496091 C.3        1 MOL1         0.1018
      13    H6      19.069253   13.260449   21.811959 H          1 MOL1         0.0783
      14    C5      18.107692   14.451214   20.239548 C.3        1 MOL1         0.1043
      15    H7      18.301847   15.435282   19.793539 H          1 MOL1         0.0783
      16    O4      16.704444   14.370190   20.599732 O.3        1 MOL1        -0.3740
      17    C6      18.397680   13.392404   19.149002 C.3        1 MOL1         0.0138
      18    H8      19.372076   13.618324   18.695008 H          1 MOL1         0.0794
      19    H9      17.640357   13.486335   18.359180 H          1 MOL1         0.0794
      20    O5      18.405288   12.060026   19.676864 O.3        1 MOL1        -0.5486
      21    H10     18.516522   11.441192   18.922227 H          1 MOL1         0.3769
      22    C7      14.857950   20.375826   20.483360 C.3        1 MOL1         0.2972
      23    H11     14.231100   21.219347   20.166508 H          1 MOL1         0.0751
      24    O6      16.109038   20.821537   21.039268 O.3        1 MOL1        -0.3740
      25    C8      14.132382   19.490784   21.531708 C.3        1 MOL1         0.1003
      26    H12     13.236637   19.084216   21.044249 H          1 MOL1         0.0783
      27    O7      13.728080   20.248936   22.681873 O.3        1 MOL1        -0.5519
      28    H13     14.541951   20.666168   23.062820 H          1 MOL1         0.3769
      29    C9      15.025826   18.296174   21.953297 C.3        1 MOL1         0.1053
      30    H14     15.899952   18.692552   22.488047 H          1 MOL1         0.0783
      31    O8      14.275656   17.438493   22.820169 O.3        1 MOL1        -0.5519
      32    H15     13.772394   18.048473   23.406500 H          1 MOL1         0.3769
      33    C10     15.528760   17.512708   20.709168 C.3        1 MOL1         0.1018
      34    H16     14.693706   16.939600   20.286270 H          1 MOL1         0.0783
      35    C11     16.102013   18.454271   19.615116 C.3        1 MOL1         0.1043
      36    H17     17.045361   18.876074   19.985670 H          1 MOL1         0.0783
      37    O9      15.165860   19.530217   19.353131 O.3        1 MOL1        -0.3740
      38    C12     16.429946   17.736456   18.281843 C.3        1 MOL1         0.0138
      39    H18     17.364090   17.173935   18.410746 H          1 MOL1         0.0794
      40    H19     16.615962   18.497781   17.512730 H          1 MOL1         0.0794
      41    O10     15.389508   16.848539   17.854984 O.3        1 MOL1        -0.5486
      42    H20     15.416376   16.062154   18.442184 H          1 MOL1         0.3769
      43    C13     18.484828   23.892039   22.237706 C.3        1 MOL1         0.2972
      44    H21     18.967142   24.817774   22.576915 H          1 MOL1         0.0751
      45    O11     19.466155   22.908799   21.845229 O.3        1 MOL1        -0.3740
      46    C14     17.599946   23.320234   23.372850 C.3        1 MOL1         0.1003
      47    H22     16.828485   24.069456   23.592950 H          1 MOL1         0.0783
      48    O12     18.370740   23.072586   24.558500 O.3        1 MOL1        -0.5519
      49    H23     18.999504   22.339386   24.342858 H          1 MOL1         0.3769
      50    C15     16.896675   22.021965   22.926115 C.3        1 MOL1         0.1053
      51    H24     17.670591   21.259409   22.809559 H          1 MOL1         0.0783
      52    O13     15.971509   21.606227   23.935264 O.3        1 MOL1        -0.5519
      53    H25     16.460796   21.699006   24.783120 H          1 MOL1         0.3769
      54    C16     16.177158   22.162151   21.563220 C.3        1 MOL1         0.1018
      55    H26     15.183906   22.601939   21.723899 H          1 MOL1         0.0783
      56    C17     16.983078   22.985239   20.517745 C.3        1 MOL1         0.1043
      57    H27     17.760369   22.320560   20.130219 H          1 MOL1         0.0783
      58    O14     17.624293   24.147898   21.106013 O.3        1 MOL1        -0.3740
      59    C18     16.134436   23.443798   19.307943 C.3        1 MOL1         0.0138
      60    H28     15.872360   22.559900   18.710767 H          1 MOL1         0.0794
      61    H29     16.748729   24.095255   18.671986 H          1 MOL1         0.0794
      62    O15     14.942623   24.126353   19.715277 O.3        1 MOL1        -0.5486
      63    H30     14.494387   24.453916   18.904923 H          1 MOL1         0.3769
      64    C19     23.454578   22.590799   20.725111 C.3        1 MOL1         0.2972
      65    H31     24.458012   22.712536   20.297061 H          1 MOL1         0.0751
      66    O16     23.270160   21.277406   21.286939 O.3        1 MOL1        -0.3740
      67    C20     23.188013   23.642038   21.832050 C.3        1 MOL1         0.1003
      68    H32     23.280134   24.631008   21.364490 H          1 MOL1         0.0783
      69    O17     24.150493   23.535296   22.893368 O.3        1 MOL1        -0.5519
      70    H33     24.140420   22.595954   23.208647 H          1 MOL1         0.3769
      71    C21     21.748624   23.517085   22.395150 C.3        1 MOL1         0.1053
      72    H34     21.693334   22.594036   22.986343 H          1 MOL1         0.0783
      73    O18     21.490993   24.645168   23.236763 O.3        1 MOL1        -0.5519
      74    H35     22.261120   24.697414   23.844350 H          1 MOL1         0.3769
      75    C22     20.679951   23.438340   21.268218 C.3        1 MOL1         0.1018
      76    H36     20.529014   24.448743   20.866712 H          1 MOL1         0.0783
      77    C23     21.094414   22.488657   20.106240 C.3        1 MOL1         0.1043
      78    H37     21.039380   21.454681   20.468624 H          1 MOL1         0.0783
      79    O19     22.453638   22.780148   19.704794 O.3        1 MOL1        -0.3740
      80    C24     20.196335   22.568388   18.844300 C.3        1 MOL1         0.0138
      81    H38     19.395732   21.825220   18.938695 H          1 MOL1         0.0794
      82    H39     20.792659   22.268820   17.972052 H          1 MOL1         0.0794
      83    O20     19.635727   23.870220   18.627035 O.3        1 MOL1        -0.5486
      84    H40     19.056457   24.077310   19.395458 H          1 MOL1         0.3769
      85    C25     25.082338   17.650153   21.929068 C.3        1 MOL1         0.2972
      86    H41     25.755967   16.799834   22.096120 H          1 MOL1         0.0751
      87    O21     23.713930   17.224330   21.780546 O.3        1 MOL1        -0.3740
      88    C26     25.153897   18.616535   23.134287 C.3        1 MOL1         0.1003
      89    H42     26.186442   18.981896   23.208341 H          1 MOL1         0.0783
      90    O22     24.801743   17.928500   24.345558 O.3        1 MOL1        -0.5519
      91    H43     24.237572   17.159451   24.084965 H          1 MOL1         0.3769
      92    C27     24.227287   19.834146   22.915699 C.3        1 MOL1         0.1053
      93    H44     23.192369   19.477551   22.944075 H          1 MOL1         0.0783
      94    O23     24.433205   20.788501   23.962153 O.3        1 MOL1        -0.5519
      95    H45     24.417023   20.261229   24.791982 H          1 MOL1         0.3769
      96    C28     24.457234   20.502502   21.538958 C.3        1 MOL1         0.1018
      97    H46     25.357176   21.129063   21.598798 H          1 MOL1         0.0783
      98    C29     24.585638   19.476316   20.375246 C.3        1 MOL1         0.1043
      99    H47     23.583117   19.079419   20.172314 H          1 MOL1         0.0783
     100    O24     25.460360   18.378117   20.742885 O.3        1 MOL1        -0.3740
     101    C30     25.106040   20.094346   19.055560 C.3        1 MOL1         0.0138
     102    H48     24.318157   20.733428   18.634468 H          1 MOL1         0.0794
     103    H49     25.287142   19.284247   18.336330 H          1 MOL1         0.0794
     104    O25     26.300173   20.861162   19.253095 O.3        1 MOL1        -0.5486
     105    H50     26.617860   21.151264   18.370188 H          1 MOL1         0.3769
     106    C31     21.380656   13.889519   20.916188 C.3        1 MOL1         0.2972
     107    H51     20.997984   12.907510   20.609535 H          1 MOL1         0.0751
     108    O26     20.308776   14.833288   21.126331 O.3        1 MOL1        -0.3740
     109    C32     22.235026   13.785029   22.209454 C.3        1 MOL1         0.1003
     110    H52     23.097743   13.147693   21.975645 H          1 MOL1         0.0783
     111    O27     21.503390   13.190474   23.291312 O.3        1 MOL1        -0.5519
     112    H53     20.720631   13.771269   23.468304 H          1 MOL1         0.3769
     113    C33     22.771505   15.181004   22.611464 C.3        1 MOL1         0.1053
     114    H54     21.913363   15.813121   22.875669 H          1 MOL1         0.0783
     115    O28     23.649806   15.062050   23.735792 O.3        1 MOL1        -0.5519
     116    H55     23.195223   14.446782   24.353275 H          1 MOL1         0.3769
     117    C34     23.520634   15.842329   21.428150 C.3        1 MOL1         0.1018
     118    H56     24.472563   15.314224   21.285874 H          1 MOL1         0.0783
     119    C35     22.704799   15.787010   20.105695 C.3        1 MOL1         0.1043
     120    H57     21.837639   16.448070   20.208459 H          1 MOL1         0.0783
     121    O29     22.241069   14.430233   19.886481 O.3        1 MOL1        -0.3740
     122    C36     23.473591   16.264091   18.845513 C.3        1 MOL1         0.0138
     123    H58     23.311431   17.342736   18.727686 H          1 MOL1         0.0794
     124    H59     23.032711   15.780301   17.963722 H          1 MOL1         0.0794
     125    O30     24.880010   15.997858   18.900117 O.3        1 MOL1        -0.5486
     126    H60     25.279235   16.686327   19.481374 H          1 MOL1         0.3769
     127    C1      20.405446   18.387663   21.622266 C.3        1 MOL1        -0.1693
     128    H1      21.274182   18.760698   21.064568 H          1 MOL1         0.0829
     129    H2      20.049717   17.469510   21.145866 H          1 MOL1         0.0829
     130    C2      19.309094   19.456694   21.922060 C.3        1 MOL1        -0.1768
     131    H3      19.153035   20.219967   21.153720 H          1 MOL1         0.0829
     132    H4      18.334447   19.041166   22.206376 H          1 MOL1         0.0829
     133    C3      20.225742   19.860715   23.117655 C.3        1 MOL1         0.1211
     134    H5      21.062799   20.509719   22.833139 H          1 MOL1         0.0786
     135    C4      20.592500   18.347804   23.176610 C.3        1 MOL1        -0.1768
     136    H6      19.871720   17.723796   23.717463 H          1 MOL1         0.0829
     137    H7      21.595013   18.107421   23.542512 H          1 MOL1         0.0829
     138    O1      19.569403   20.370821   24.253462 O.3        1 MOL1        -0.5515
     139    H8      18.956096   19.672356   24.557959 H          1 MOL1         0.3773
@<TRIPOS>BOND
    1     1     2    1
    2     1     3    1
    3     1     4    1
    4     4     5    1
    5     4     6    1
    6     6     7    1
    7     4     8    1
    8     8     9    1
    9     8    10    1
   10    10    11    1
   11     8    12    1
   12    12    13    1
   13    12    14    1
   14    14    15    1
   15     1    16    1
   16    14    16    1
   17    14    17    1
   18    17    18    1
   19    17    19    1
   20    17    20    1
   21    20    21    1
   22    22    23    1
   23    22    24    1
   24    22    25    1
   25    25    26    1
   26    25    27    1
   27    27    28    1
   28    25    29    1
   29    29    30    1
   30    29    31    1
   31    31    32    1
   32     3    33    1
   33    29    33    1
   34    33    34    1
   35    33    35    1
   36    35    36    1
   37    22    37    1
   38    35    37    1
   39    35    38    1
   40    38    39    1
   41    38    40    1
   42    38    41    1
   43    41    42    1
   44    43    44    1
   45    43    45    1
   46    43    46    1
   47    46    47    1
   48    46    48    1
   49    48    49    1
   50    46    50    1
   51    50    51    1
   52    50    52    1
   53    52    53    1
   54    24    54    1
   55    50    54    1
   56    54    55    1
   57    54    56    1
   58    56    57    1
   59    43    58    1
   60    56    58    1
   61    56    59    1
   62    59    60    1
   63    59    61    1
   64    59    62    1
   65    62    63    1
   66    64    65    1
   67    64    66    1
   68    64    67    1
   69    67    68    1
   70    67    69    1
   71    69    70    1
   72    67    71    1
   73    71    72    1
   74    71    73    1
   75    73    74    1
   76    45    75    1
   77    71    75    1
   78    75    76    1
   79    75    77    1
   80    77    78    1
   81    64    79    1
   82    77    79    1
   83    77    80    1
   84    80    81    1
   85    80    82    1
   86    80    83    1
   87    83    84    1
   88    85    86    1
   89    85    87    1
   90    85    88    1
   91    88    89    1
   92    88    90    1
   93    90    91    1
   94    88    92    1
   95    92    93    1
   96    92    94    1
   97    94    95    1
   98    66    96    1
   99    92    96    1
  100    96    97    1
  101    96    98    1
  102    98    99    1
  103    85   100    1
  104    98   100    1
  105    98   101    1
  106   101   102    1
  107   101   103    1
  108   101   104    1
  109   104   105    1
  110   106   107    1
  111    12   108    1
  112   106   108    1
  113   106   109    1
  114   109   110    1
  115   109   111    1
  116   111   112    1
  117   109   113    1
  118   113   114    1
  119   113   115    1
  120   115   116    1
  121    87   117    1
  122   113   117    1
  123   117   118    1
  124   117   119    1
  125   119   120    1
  126   106   121    1
  127   119   121    1
  128   119   122    1
  129   122   123    1
  130   122   124    1
  131   122   125    1
  132   125   126    1
  133   127   128    1
  134   127   129    1
  135   127   130    1
  136   130   131    1
  137   130   132    1
  138   130   133    1
  139   133   134    1
  140   127   135    1
  141   133   135    1
  142   135   136    1
  143   135   137    1
  144   133   138    1
  145   138   139    1
@<TRIPOS>SUBSTRUCTURE
       1 MOL1            1 RESIDUE      1      MOL     
       2 MOL1          139 RESIDUE      1      MOL     
@<SCITEGIC>MOL_PROPERTY
feprocess Rank
SciTegic.value.IntegerValue
7

@<SCITEGIC>MOL_PROPERTY
Conf_Id
SciTegic.value.IntegerValue
959

@<SCITEGIC>MOL_PROPERTY
Probability
SciTegic.value.DoubleValue
3.62

@<SCITEGIC>MOL_PROPERTY
G
SciTegic.value.DoubleValue
546.029

@<SCITEGIC>MOL_PROPERTY
E
SciTegic.value.DoubleValue
367.017

@<SCITEGIC>MOL_PROPERTY
-TS
SciTegic.value.DoubleValue
179.012

@<SCITEGIC>MOL_PROPERTY
U+W
SciTegic.value.DoubleValue
244.505

@<SCITEGIC>MOL_PROPERTY
U
SciTegic.value.DoubleValue
283.214

@<SCITEGIC>MOL_PROPERTY
W
SciTegic.value.DoubleValue
-38.709

@<SCITEGIC>MOL_PROPERTY
W(PB)
SciTegic.value.DoubleValue
-44.725

@<SCITEGIC>MOL_PROPERTY
W(SA)
SciTegic.value.DoubleValue
6.016

@<SCITEGIC>MOL_PROPERTY
Valence
SciTegic.value.DoubleValue
151.560

@<SCITEGIC>MOL_PROPERTY
Coulomb
SciTegic.value.DoubleValue
152.328

@<SCITEGIC>MOL_PROPERTY
VdW
SciTegic.value.DoubleValue
-20.674

@<SCITEGIC>MOL_PROPERTY
VdW6
SciTegic.value.DoubleValue
-169.473

@<SCITEGIC>MOL_PROPERTY
VdW12
SciTegic.value.DoubleValue
148.798

@<SCITEGIC>MOL_PROPERTY
Bond
SciTegic.value.DoubleValue
4.737

@<SCITEGIC>MOL_PROPERTY
Angle
SciTegic.value.DoubleValue
13.285

@<SCITEGIC>MOL_PROPERTY
Pdih
SciTegic.value.DoubleValue
133.537

@<SCITEGIC>MOL_PROPERTY
Idih
SciTegic.value.DoubleValue
0.000

@<SCITEGIC>MOL_PROPERTY
Tether
SciTegic.value.DoubleValue
0.000

@<TRIPOS>MOLECULE
CD_guest-s16_fast_vm2_rndm.mol2 : feprocess host+ligand conformer 8
         139         145           2
SMALL
USER_CHARGES
 
@<TRIPOS>ATOM
       1    C1      16.327056   15.281852   20.116802 C.3        1 MOL1         0.2972
       2    H1      15.301467   15.225732   19.729749 H          1 MOL1         0.0751
       3    O1      16.629885   16.598560   20.632880 O.3        1 MOL1        -0.3740
       4    C2      16.576577   14.215293   21.214616 C.3        1 MOL1         0.1003
       5    H2      16.491347   13.233271   20.730971 H          1 MOL1         0.0783
       6    O2      15.609575   14.285839   22.271565 O.3        1 MOL1        -0.5519
       7    H3      15.711804   15.174618   22.696044 H          1 MOL1         0.3769
       8    C3      18.017236   14.344364   21.768983 C.3        1 MOL1         0.1053
       9    H4      18.107285   15.322340   22.262354 H          1 MOL1         0.0783
      10    O3      18.236075   13.296510   22.720579 O.3        1 MOL1        -0.5519
      11    H5      17.379910   13.206862   23.198933 H          1 MOL1         0.3769
      12    C4      19.063616   14.279631   20.617184 C.3        1 MOL1         0.1018
      13    H6      19.174071   13.238765   20.288256 H          1 MOL1         0.0783
      14    C5      18.661943   15.167381   19.405637 C.3        1 MOL1         0.1043
      15    H7      18.814760   16.209365   19.704458 H          1 MOL1         0.0783
      16    O4      17.266582   14.989595   19.061925 O.3        1 MOL1        -0.3740
      17    C6      19.524369   14.930083   18.141647 C.3        1 MOL1         0.0138
      18    H8      20.532153   15.326390   18.325202 H          1 MOL1         0.0794
      19    H9      19.094699   15.509949   17.314092 H          1 MOL1         0.0794
      20    O5      19.605662   13.546015   17.780406 O.3        1 MOL1        -0.5486
      21    H10     20.198477   13.105100   18.425929 H          1 MOL1         0.3769
      22    C7      14.861222   20.126272   21.969079 C.3        1 MOL1         0.2972
      23    H11     14.163936   20.902311   22.309654 H          1 MOL1         0.0751
      24    O6      16.181058   20.654917   21.739864 O.3        1 MOL1        -0.3740
      25    C8      14.964360   19.002027   23.028933 C.3        1 MOL1         0.1003
      26    H12     13.965271   18.559192   23.134020 H          1 MOL1         0.0783
      27    O7      15.382208   19.518846   24.302568 O.3        1 MOL1        -0.5519
      28    H13     15.785786   20.407914   24.140933 H          1 MOL1         0.3769
      29    C9      15.928034   17.890043   22.554992 C.3        1 MOL1         0.1053
      30    H14     16.938964   18.313582   22.495120 H          1 MOL1         0.0783
      31    O8      15.906146   16.831219   23.515516 O.3        1 MOL1        -0.5519
      32    H15     15.980034   17.285209   24.385562 H          1 MOL1         0.3769
      33    C10     15.525857   17.370996   21.148974 C.3        1 MOL1         0.1018
      34    H16     14.613857   16.766809   21.245098 H          1 MOL1         0.0783
      35    C11     15.281461   18.538002   20.148811 C.3        1 MOL1         0.1043
      36    H17     16.250715   19.003148   19.924321 H          1 MOL1         0.0783
      37    O9      14.401043   19.532149   20.736729 O.3        1 MOL1        -0.3740
      38    C12     14.674589   18.078414   18.802120 C.3        1 MOL1         0.0138
      39    H18     15.443864   17.525392   18.246041 H          1 MOL1         0.0794
      40    H19     14.421147   18.968359   18.210596 H          1 MOL1         0.0794
      41    O10     13.517517   17.252035   18.984159 O.3        1 MOL1        -0.5486
      42    H20     13.144333   17.062622   18.095756 H          1 MOL1         0.3769
      43    C13     18.430234   24.121852   21.691086 C.3        1 MOL1         0.2972
      44    H21     18.802776   25.153589   21.653010 H          1 MOL1         0.0751
      45    O11     19.508768   23.167260   21.712721 O.3        1 MOL1        -0.3740
      46    C14     17.603906   23.911971   22.981082 C.3        1 MOL1         0.1003
      47    H22     16.750798   24.602159   22.948176 H          1 MOL1         0.0783
      48    O12     18.406636   24.198195   24.137702 O.3        1 MOL1        -0.5519
      49    H23     19.342261   23.999577   23.889106 H          1 MOL1         0.3769
      50    C15     17.054933   22.467783   23.046885 C.3        1 MOL1         0.1053
      51    H24     17.906177   21.783081   23.165579 H          1 MOL1         0.0783
      52    O13     16.178420   22.347992   24.170662 O.3        1 MOL1        -0.5519
      53    H25     16.645867   22.804980   24.906133 H          1 MOL1         0.3769
      54    C16     16.307587   22.088724   21.743823 C.3        1 MOL1         0.1018
      55    H26     15.332955   22.593108   21.731772 H          1 MOL1         0.0783
      56    C17     17.099641   22.472678   20.464055 C.3        1 MOL1         0.1043
      57    H27     17.955901   21.793872   20.385325 H          1 MOL1         0.0783
      58    O14     17.584275   23.837676   20.556097 O.3        1 MOL1        -0.3740
      59    C18     16.281743   22.318743   19.157952 C.3        1 MOL1         0.0138
      60    H28     16.167513   21.248310   18.941880 H          1 MOL1         0.0794
      61    H29     16.859732   22.753130   18.331612 H          1 MOL1         0.0794
      62    O15     14.990086   22.933972   19.235342 O.3        1 MOL1        -0.5486
      63    H30     14.395876   22.306532   19.700440 H          1 MOL1         0.3769
      64    C19     23.496343   22.680072   20.632368 C.3        1 MOL1         0.2972
      65    H31     24.509459   22.806638   20.229281 H          1 MOL1         0.0751
      66    O16     23.271153   21.331718   21.094831 O.3        1 MOL1        -0.3740
      67    C20     23.240468   23.655604   21.811839 C.3        1 MOL1         0.1003
      68    H32     23.345227   24.675447   21.419302 H          1 MOL1         0.0783
      69    O17     24.190753   23.464985   22.871242 O.3        1 MOL1        -0.5519
      70    H33     24.179877   22.503373   23.110506 H          1 MOL1         0.3769
      71    C21     21.793812   23.496114   22.340751 C.3        1 MOL1         0.1053
      72    H34     21.696313   22.493173   22.779208 H          1 MOL1         0.0783
      73    O18     21.529987   24.488382   23.338598 O.3        1 MOL1        -0.5519
      74    H35     22.325754   24.489270   23.916122 H          1 MOL1         0.3769
      75    C22     20.767651   23.624766   21.188135 C.3        1 MOL1         0.1018
      76    H36     20.730094   24.676277   20.874666 H          1 MOL1         0.0783
      77    C23     21.138448   22.734534   19.970081 C.3        1 MOL1         0.1043
      78    H37     21.019716   21.686096   20.268831 H          1 MOL1         0.0783
      79    O19     22.520615   22.971365   19.608379 O.3        1 MOL1        -0.3740
      80    C24     20.261973   22.955610   18.709639 C.3        1 MOL1         0.0138
      81    H38     19.389347   22.296087   18.772045 H          1 MOL1         0.0794
      82    H39     20.832716   22.638266   17.826908 H          1 MOL1         0.0794
      83    O20     19.824617   24.310299   18.551468 O.3        1 MOL1        -0.5486
      84    H40     19.029218   24.418205   19.122666 H          1 MOL1         0.3769
      85    C25     25.087781   17.650502   21.532241 C.3        1 MOL1         0.2972
      86    H41     25.762142   16.787277   21.602115 H          1 MOL1         0.0751
      87    O21     23.707104   17.236795   21.426719 O.3        1 MOL1        -0.3740
      88    C26     25.255574   18.594054   22.751367 C.3        1 MOL1         0.1003
      89    H42     26.275719   18.997609   22.707898 H          1 MOL1         0.0783
      90    O22     25.090207   17.903509   23.998133 O.3        1 MOL1        -0.5519
      91    H43     24.167406   17.544567   24.011063 H          1 MOL1         0.3769
      92    C27     24.271536   19.783272   22.639584 C.3        1 MOL1         0.1053
      93    H44     23.245767   19.393395   22.696839 H          1 MOL1         0.0783
      94    O23     24.505191   20.692210   23.720069 O.3        1 MOL1        -0.5519
      95    H45     24.598677   20.123130   24.516765 H          1 MOL1         0.3769
      96    C28     24.444632   20.516449   21.284205 C.3        1 MOL1         0.1018
      97    H46     25.358334   21.123046   21.340898 H          1 MOL1         0.0783
      98    C29     24.530040   19.543250   20.070849 C.3        1 MOL1         0.1043
      99    H47     23.526214   19.150089   19.873840 H          1 MOL1         0.0783
     100    O24     25.414513   18.431978   20.363289 O.3        1 MOL1        -0.3740
     101    C30     25.010877   20.223400   18.766658 C.3        1 MOL1         0.0138
     102    H48     24.211634   20.883675   18.403400 H          1 MOL1         0.0794
     103    H49     25.164508   19.448260   18.003986 H          1 MOL1         0.0794
     104    O25     26.214151   20.977654   18.960753 O.3        1 MOL1        -0.5486
     105    H50     26.499847   21.313540   18.083127 H          1 MOL1         0.3769
     106    C31     21.140203   14.018152   21.937142 C.3        1 MOL1         0.2972
     107    H51     20.665070   13.056885   22.168909 H          1 MOL1         0.0751
     108    O26     20.324446   14.822821   21.062133 O.3        1 MOL1        -0.3740
     109    C32     21.424995   14.822645   23.232519 C.3        1 MOL1         0.1003
     110    H52     22.124622   14.227717   23.834191 H          1 MOL1         0.0783
     111    O27     20.230831   15.055648   23.996872 O.3        1 MOL1        -0.5519
     112    H53     19.576342   14.366255   23.730961 H          1 MOL1         0.3769
     113    C33     22.104947   16.170044   22.893351 C.3        1 MOL1         0.1053
     114    H54     21.385742   16.781303   22.333557 H          1 MOL1         0.0783
     115    O28     22.443341   16.831061   24.114993 O.3        1 MOL1        -0.5519
     116    H55     21.637596   16.736662   24.672689 H          1 MOL1         0.3769
     117    C34     23.365395   15.961769   22.011998 C.3        1 MOL1         0.1018
     118    H56     24.172388   15.573056   22.647303 H          1 MOL1         0.0783
     119    C35     23.107670   14.983693   20.829525 C.3        1 MOL1         0.1043
     120    H57     22.482735   15.501249   20.090132 H          1 MOL1         0.0783
     121    O29     22.410113   13.797172   21.287590 O.3        1 MOL1        -0.3740
     122    C36     24.401859   14.541941   20.104865 C.3        1 MOL1         0.0138
     123    H58     24.798616   15.401014   19.546918 H          1 MOL1         0.0794
     124    H59     24.145048   13.766592   19.370691 H          1 MOL1         0.0794
     125    O30     25.394474   14.055643   21.017438 O.3        1 MOL1        -0.5486
     126    H60     26.150889   13.724230   20.485679 H          1 MOL1         0.3769
     127    C1      20.733113   18.433233   20.094087 C.3        1 MOL1        -0.1693
     128    H1      20.751218   17.338259   20.094646 H          1 MOL1         0.0829
     129    H2      21.518934   18.793951   20.766247 H          1 MOL1         0.0829
     130    C2      19.326711   19.072407   20.319068 C.3        1 MOL1        -0.1768
     131    H3      18.632961   18.493930   20.935820 H          1 MOL1         0.0829
     132    H4      19.354118   20.099959   20.694856 H          1 MOL1         0.0829
     133    C3      19.133486   18.942269   18.778970 C.3        1 MOL1         0.1211
     134    H5      18.752312   17.964942   18.459785 H          1 MOL1         0.0786
     135    C4      20.682769   19.080240   18.671914 C.3        1 MOL1        -0.1768
     136    H6      21.156095   18.505705   17.868609 H          1 MOL1         0.0829
     137    H7      21.049574   20.110205   18.624505 H          1 MOL1         0.0829
     138    O1      18.391419   19.974760   18.175195 O.3        1 MOL1        -0.5515
     139    H8      18.485319   19.868923   17.207122 H          1 MOL1         0.3773
@<TRIPOS>BOND
    1     1     2    1
    2     1     3    1
    3     1     4    1
    4     4     5    1
    5     4     6    1
    6     6     7    1
    7     4     8    1
    8     8     9    1
    9     8    10    1
   10    10    11    1
   11     8    12    1
   12    12    13    1
   13    12    14    1
   14    14    15    1
   15     1    16    1
   16    14    16    1
   17    14    17    1
   18    17    18    1
   19    17    19    1
   20    17    20    1
   21    20    21    1
   22    22    23    1
   23    22    24    1
   24    22    25    1
   25    25    26    1
   26    25    27    1
   27    27    28    1
   28    25    29    1
   29    29    30    1
   30    29    31    1
   31    31    32    1
   32     3    33    1
   33    29    33    1
   34    33    34    1
   35    33    35    1
   36    35    36    1
   37    22    37    1
   38    35    37    1
   39    35    38    1
   40    38    39    1
   41    38    40    1
   42    38    41    1
   43    41    42    1
   44    43    44    1
   45    43    45    1
   46    43    46    1
   47    46    47    1
   48    46    48    1
   49    48    49    1
   50    46    50    1
   51    50    51    1
   52    50    52    1
   53    52    53    1
   54    24    54    1
   55    50    54    1
   56    54    55    1
   57    54    56    1
   58    56    57    1
   59    43    58    1
   60    56    58    1
   61    56    59    1
   62    59    60    1
   63    59    61    1
   64    59    62    1
   65    62    63    1
   66    64    65    1
   67    64    66    1
   68    64    67    1
   69    67    68    1
   70    67    69    1
   71    69    70    1
   72    67    71    1
   73    71    72    1
   74    71    73    1
   75    73    74    1
   76    45    75    1
   77    71    75    1
   78    75    76    1
   79    75    77    1
   80    77    78    1
   81    64    79    1
   82    77    79    1
   83    77    80    1
   84    80    81    1
   85    80    82    1
   86    80    83    1
   87    83    84    1
   88    85    86    1
   89    85    87    1
   90    85    88    1
   91    88    89    1
   92    88    90    1
   93    90    91    1
   94    88    92    1
   95    92    93    1
   96    92    94    1
   97    94    95    1
   98    66    96    1
   99    92    96    1
  100    96    97    1
  101    96    98    1
  102    98    99    1
  103    85   100    1
  104    98   100    1
  105    98   101    1
  106   101   102    1
  107   101   103    1
  108   101   104    1
  109   104   105    1
  110   106   107    1
  111    12   108    1
  112   106   108    1
  113   106   109    1
  114   109   110    1
  115   109   111    1
  116   111   112    1
  117   109   113    1
  118   113   114    1
  119   113   115    1
  120   115   116    1
  121    87   117    1
  122   113   117    1
  123   117   118    1
  124   117   119    1
  125   119   120    1
  126   106   121    1
  127   119   121    1
  128   119   122    1
  129   122   123    1
  130   122   124    1
  131   122   125    1
  132   125   126    1
  133   127   128    1
  134   127   129    1
  135   127   130    1
  136   130   131    1
  137   130   132    1
  138   130   133    1
  139   133   134    1
  140   127   135    1
  141   133   135    1
  142   135   136    1
  143   135   137    1
  144   133   138    1
  145   138   139    1
@<TRIPOS>SUBSTRUCTURE
       1 MOL1            1 RESIDUE      1      MOL     
       2 MOL1          139 RESIDUE      1      MOL     
@<SCITEGIC>MOL_PROPERTY
feprocess Rank
SciTegic.value.IntegerValue
8

@<SCITEGIC>MOL_PROPERTY
Conf_Id
SciTegic.value.IntegerValue
846

@<SCITEGIC>MOL_PROPERTY
Probability
SciTegic.value.DoubleValue
3.46

@<SCITEGIC>MOL_PROPERTY
G
SciTegic.value.DoubleValue
546.056

@<SCITEGIC>MOL_PROPERTY
E
SciTegic.value.DoubleValue
367.848

@<SCITEGIC>MOL_PROPERTY
-TS
SciTegic.value.DoubleValue
178.208

@<SCITEGIC>MOL_PROPERTY
U+W
SciTegic.value.DoubleValue
245.337

@<SCITEGIC>MOL_PROPERTY
U
SciTegic.value.DoubleValue
284.007

@<SCITEGIC>MOL_PROPERTY
W
SciTegic.value.DoubleValue
-38.670

@<SCITEGIC>MOL_PROPERTY
W(PB)
SciTegic.value.DoubleValue
-44.802

@<SCITEGIC>MOL_PROPERTY
W(SA)
SciTegic.value.DoubleValue
6.131

@<SCITEGIC>MOL_PROPERTY
Valence
SciTegic.value.DoubleValue
151.817

@<SCITEGIC>MOL_PROPERTY
Coulomb
SciTegic.value.DoubleValue
150.677

@<SCITEGIC>MOL_PROPERTY
VdW
SciTegic.value.DoubleValue
-18.487

@<SCITEGIC>MOL_PROPERTY
VdW6
SciTegic.value.DoubleValue
-165.509

@<SCITEGIC>MOL_PROPERTY
VdW12
SciTegic.value.DoubleValue
147.022

@<SCITEGIC>MOL_PROPERTY
Bond
SciTegic.value.DoubleValue
4.683

@<SCITEGIC>MOL_PROPERTY
Angle
SciTegic.value.DoubleValue
12.051

@<SCITEGIC>MOL_PROPERTY
Pdih
SciTegic.value.DoubleValue
135.082

@<SCITEGIC>MOL_PROPERTY
Idih
SciTegic.value.DoubleValue
0.000

@<SCITEGIC>MOL_PROPERTY
Tether
SciTegic.value.DoubleValue
0.000

