@<TRIPOS>MOLECULE
CD_guest-s13_fast_vm2_rndm.mol2 : feprocess host+ligand conformer 1
         152         157           2
SMALL
USER_CHARGES
 
@<TRIPOS>ATOM
       1    C1      16.282525   15.268339   20.499844 C.3        1 MOL1         0.2972
       2    H1      15.294510   15.030748   20.084842 H          1 MOL1         0.0751
       3    O1      16.372510   16.644867   20.919901 O.3        1 MOL1        -0.3740
       4    C2      16.588032   14.382479   21.737084 C.3        1 MOL1         0.1003
       5    H2      16.567291   13.335885   21.406462 H          1 MOL1         0.0783
       6    O2      15.602723   14.570924   22.765709 O.3        1 MOL1        -0.5519
       7    H3      15.425712   15.543110   22.838029 H          1 MOL1         0.3769
       8    C3      18.004871   14.682710   22.286203 C.3        1 MOL1         0.1053
       9    H4      18.002670   15.710615   22.666333 H          1 MOL1         0.0783
      10    O3      18.308445   13.778412   23.354286 O.3        1 MOL1        -0.5519
      11    H5      17.474838   13.711967   23.872751 H          1 MOL1         0.3769
      12    C4      19.060738   14.578070   21.152982 C.3        1 MOL1         0.1018
      13    H6      19.174408   13.524132   20.867290 H          1 MOL1         0.0783
      14    C5      18.650280   15.399969   19.904125 C.3        1 MOL1         0.1043
      15    H7      18.667523   16.463865   20.170741 H          1 MOL1         0.0783
      16    O4      17.308532   15.028908   19.510498 O.3        1 MOL1        -0.3740
      17    C6      19.603357   15.221179   18.694499 C.3        1 MOL1         0.0138
      18    H8      20.462044   15.891122   18.829695 H          1 MOL1         0.0794
      19    H9      19.081679   15.547246   17.784902 H          1 MOL1         0.0794
      20    O5      20.071001   13.875460   18.541266 O.3        1 MOL1        -0.5486
      21    H10     20.670156   13.686200   19.296973 H          1 MOL1         0.3769
      22    C7      14.535612   20.305118   20.794020 C.3        1 MOL1         0.2972
      23    H11     13.895980   21.190724   20.687369 H          1 MOL1         0.0751
      24    O6      15.924897   20.673082   20.960276 O.3        1 MOL1        -0.3740
      25    C8      14.068546   19.409513   21.972394 C.3        1 MOL1         0.1003
      26    H12     13.081032   19.012309   21.703043 H          1 MOL1         0.0783
      27    O7      13.945970   20.139136   23.201175 O.3        1 MOL1        -0.5519
      28    H13     14.858009   20.427586   23.454889 H          1 MOL1         0.3769
      29    C9      15.033996   18.211899   22.129366 C.3        1 MOL1         0.1053
      30    H14     16.021585   18.602826   22.402957 H          1 MOL1         0.0783
      31    O8      14.562043   17.337740   23.159459 O.3        1 MOL1        -0.5519
      32    H15     14.261372   17.931331   23.882980 H          1 MOL1         0.3769
      33    C10     15.171165   17.429949   20.799120 C.3        1 MOL1         0.1018
      34    H16     14.278056   16.801757   20.683831 H          1 MOL1         0.0783
      35    C11     15.339855   18.347767   19.550999 C.3        1 MOL1         0.1043
      36    H17     16.369661   18.722023   19.538445 H          1 MOL1         0.0783
      37    O9      14.438091   19.482835   19.611817 O.3        1 MOL1        -0.3740
      38    C12     15.112055   17.609786   18.210134 C.3        1 MOL1         0.0138
      39    H18     15.950584   16.920020   18.044713 H          1 MOL1         0.0794
      40    H19     15.131854   18.347405   17.396735 H          1 MOL1         0.0794
      41    O10     13.876059   16.884412   18.195013 O.3        1 MOL1        -0.5486
      42    H20     13.770359   16.494872   17.299646 H          1 MOL1         0.3769
      43    C13     18.530873   23.642200   22.213250 C.3        1 MOL1         0.2972
      44    H21     18.992385   24.549513   22.622635 H          1 MOL1         0.0751
      45    O11     19.480223   22.855891   21.463764 O.3        1 MOL1        -0.3740
      46    C14     17.950456   22.773128   23.357321 C.3        1 MOL1         0.1003
      47    H22     17.208734   23.387206   23.884647 H          1 MOL1         0.0783
      48    O12     18.968431   22.358339   24.284332 O.3        1 MOL1        -0.5519
      49    H23     19.712369   23.002581   24.203095 H          1 MOL1         0.3769
      50    C15     17.234886   21.527483   22.793082 C.3        1 MOL1         0.1053
      51    H24     17.994728   20.886434   22.336962 H          1 MOL1         0.0783
      52    O13     16.615155   20.839418   23.881042 O.3        1 MOL1        -0.5519
      53    H25     17.274895   20.898062   24.608342 H          1 MOL1         0.3769
      54    C16     16.205155   21.886540   21.691636 C.3        1 MOL1         0.1018
      55    H26     15.306278   22.302481   22.165644 H          1 MOL1         0.0783
      56    C17     16.779577   22.899425   20.660471 C.3        1 MOL1         0.1043
      57    H27     17.512888   22.372129   20.036964 H          1 MOL1         0.0783
      58    O14     17.442201   23.998291   21.335066 O.3        1 MOL1        -0.3740
      59    C18     15.705705   23.480960   19.710076 C.3        1 MOL1         0.0138
      60    H28     15.380257   22.685855   19.025580 H          1 MOL1         0.0794
      61    H29     16.167239   24.268729   19.099698 H          1 MOL1         0.0794
      62    O15     14.575549   23.999625   20.422712 O.3        1 MOL1        -0.5486
      63    H30     13.975378   24.416794   19.766635 H          1 MOL1         0.3769
      64    C19     23.622689   22.743851   20.936243 C.3        1 MOL1         0.2972
      65    H31     24.665747   22.988055   20.700262 H          1 MOL1         0.0751
      66    O16     23.446277   21.337750   21.209143 O.3        1 MOL1        -0.3740
      67    C20     23.151279   23.541867   22.177527 C.3        1 MOL1         0.1003
      68    H32     23.221594   24.607820   21.924174 H          1 MOL1         0.0783
      69    O17     23.985227   23.281092   23.317023 O.3        1 MOL1        -0.5519
      70    H33     24.214615   22.317307   23.307916 H          1 MOL1         0.3769
      71    C21     21.669937   23.232116   22.502356 C.3        1 MOL1         0.1053
      72    H34     21.596943   22.177682   22.799679 H          1 MOL1         0.0783
      73    O18     21.259590   24.071953   23.586951 O.3        1 MOL1        -0.5519
      74    H35     22.033109   24.086405   24.196377 H          1 MOL1         0.3769
      75    C22     20.775728   23.453723   21.249315 C.3        1 MOL1         0.1018
      76    H36     20.688083   24.531049   21.058849 H          1 MOL1         0.0783
      77    C23     21.365009   22.762555   19.988930 C.3        1 MOL1         0.1043
      78    H37     21.280109   21.680402   20.126542 H          1 MOL1         0.0783
      79    O19     22.763872   23.106127   19.833685 O.3        1 MOL1        -0.3740
      80    C24     20.613259   23.107059   18.679321 C.3        1 MOL1         0.0138
      81    H38     19.656481   22.567999   18.674323 H          1 MOL1         0.0794
      82    H39     21.200270   22.731610   17.830720 H          1 MOL1         0.0794
      83    O20     20.374501   24.511561   18.529856 O.3        1 MOL1        -0.5486
      84    H40     19.675410   24.761036   19.171955 H          1 MOL1         0.3769
      85    C25     25.219037   17.618536   21.177074 C.3        1 MOL1         0.2972
      86    H41     25.857155   16.729843   21.087870 H          1 MOL1         0.0751
      87    O21     23.830320   17.261945   21.358401 O.3        1 MOL1        -0.3740
      88    C26     25.673648   18.525462   22.349254 C.3        1 MOL1         0.1003
      89    H42     26.675303   18.899314   22.099646 H          1 MOL1         0.0783
      90    O22     25.747188   17.808636   23.589721 O.3        1 MOL1        -0.5519
      91    H43     24.838296   17.466935   23.783202 H          1 MOL1         0.3769
      92    C27     24.727524   19.744311   22.469067 C.3        1 MOL1         0.1053
      93    H44     23.728588   19.379113   22.742132 H          1 MOL1         0.0783
      94    O23     25.212575   20.623742   23.486959 O.3        1 MOL1        -0.5519
      95    H45     25.476413   20.035068   24.229443 H          1 MOL1         0.3769
      96    C28     24.620022   20.503887   21.121002 C.3        1 MOL1         0.1018
      97    H46     25.537416   21.091350   20.988120 H          1 MOL1         0.0783
      98    C29     24.424796   19.555977   19.900640 C.3        1 MOL1         0.1043
      99    H47     23.396555   19.180931   19.917249 H          1 MOL1         0.0783
     100    O24     25.322961   18.421159   19.981476 O.3        1 MOL1        -0.3740
     101    C30     24.623960   20.250228   18.531230 C.3        1 MOL1         0.0138
     102    H48     23.794027   20.950640   18.365703 H          1 MOL1         0.0794
     103    H49     24.562634   19.485589   17.745536 H          1 MOL1         0.0794
     104    O25     25.874751   20.943794   18.439808 O.3        1 MOL1        -0.5486
     105    H50     25.758332   21.828743   18.844409 H          1 MOL1         0.3769
     106    C31     21.206450   14.212689   22.246730 C.3        1 MOL1         0.2972
     107    H51     20.699461   13.283410   22.536576 H          1 MOL1         0.0751
     108    O26     20.303251   15.136863   21.610944 O.3        1 MOL1        -0.3740
     109    C32     21.803528   14.905021   23.494081 C.3        1 MOL1         0.1003
     110    H52     22.537971   14.215856   23.931175 H          1 MOL1         0.0783
     111    O27     20.780608   15.196316   24.464130 O.3        1 MOL1        -0.5519
     112    H53     20.000085   14.635799   24.230308 H          1 MOL1         0.3769
     113    C33     22.530909   16.205997   23.086758 C.3        1 MOL1         0.1053
     114    H54     21.773636   16.899160   22.709540 H          1 MOL1         0.0783
     115    O28     23.163558   16.764731   24.242089 O.3        1 MOL1        -0.5519
     116    H55     22.659533   16.407194   25.005605 H          1 MOL1         0.3769
     117    C34     23.556272   15.972855   21.946673 C.3        1 MOL1         0.1018
     118    H56     24.457306   15.509869   22.370555 H          1 MOL1         0.0783
     119    C35     22.984699   15.088182   20.800979 C.3        1 MOL1         0.1043
     120    H57     22.274445   15.699499   20.230505 H          1 MOL1         0.0783
     121    O29     22.285752   13.933166   21.330999 O.3        1 MOL1        -0.3740
     122    C36     24.063799   14.597554   19.806472 C.3        1 MOL1         0.0138
     123    H58     24.415194   15.458442   19.221562 H          1 MOL1         0.0794
     124    H59     23.599123   13.893229   19.103447 H          1 MOL1         0.0794
     125    O30     25.171511   13.979442   20.473243 O.3        1 MOL1        -0.5486
     126    H60     25.775724   13.627332   19.783580 H          1 MOL1         0.3769
     127    C1      19.526488   19.255986   18.594536 C.3        1 MOL1        -0.2398
     128    H1      18.640392   19.568921   18.027178 H          1 MOL1         0.0972
     129    H2      20.374854   19.866056   18.258853 H          1 MOL1         0.0972
     130    H3      19.737490   18.210591   18.339808 H          1 MOL1         0.0972
     131    C2      19.287521   19.422879   20.109000 C.3        1 MOL1        -0.1383
     132    H4      18.414193   18.829897   20.405285 H          1 MOL1         0.0961
     133    H5      19.042239   20.471207   20.319256 H          1 MOL1         0.0961
     134    C3      20.520646   18.998018   20.938403 C.3        1 MOL1        -0.1407
     135    H6      20.740444   17.935563   20.766309 H          1 MOL1         0.0961
     136    H7      21.395183   19.551428   20.585136 H          1 MOL1         0.0961
     137    C4      20.364429   19.261241   22.453973 C.3        1 MOL1        -0.1407
     138    H8      20.137597   20.320785   22.627430 H          1 MOL1         0.0961
     139    H9      21.332078   19.081260   22.937961 H          1 MOL1         0.0961
     140    C5      19.273680   18.372092   23.099335 C.3        1 MOL1        -0.1472
     141    H10     18.298207   18.617528   22.665298 H          1 MOL1         0.0961
     142    H11     19.467323   17.323030   22.854243 H          1 MOL1         0.0961
     143    C6      19.188843   18.526654   24.629346 C.3        1 MOL1         0.1190
     144    H12     19.118152   19.592441   24.869718 H          1 MOL1         0.0923
     145    C7      17.937119   17.812966   25.165208 C.3        1 MOL1        -0.2463
     146    H13     17.976574   16.735644   24.960684 H          1 MOL1         0.0972
     147    H14     17.026583   18.212350   24.702304 H          1 MOL1         0.0972
     148    H15     17.846206   17.951037   26.249307 H          1 MOL1         0.0972
     149    N1      20.416691   17.992429   25.311072 N.4        1 MOL1        -0.5974
     150    H16     21.267451   18.455150   24.977260 H          1 MOL1         0.3625
     151    H17     20.366305   18.111286   26.326130 H          1 MOL1         0.3625
     152    H18     20.518857   16.983637   25.117140 H          1 MOL1         0.3625
@<TRIPOS>BOND
    1     1     2    1
    2     1     3    1
    3     1     4    1
    4     4     5    1
    5     4     6    1
    6     6     7    1
    7     4     8    1
    8     8     9    1
    9     8    10    1
   10    10    11    1
   11     8    12    1
   12    12    13    1
   13    12    14    1
   14    14    15    1
   15     1    16    1
   16    14    16    1
   17    14    17    1
   18    17    18    1
   19    17    19    1
   20    17    20    1
   21    20    21    1
   22    22    23    1
   23    22    24    1
   24    22    25    1
   25    25    26    1
   26    25    27    1
   27    27    28    1
   28    25    29    1
   29    29    30    1
   30    29    31    1
   31    31    32    1
   32     3    33    1
   33    29    33    1
   34    33    34    1
   35    33    35    1
   36    35    36    1
   37    22    37    1
   38    35    37    1
   39    35    38    1
   40    38    39    1
   41    38    40    1
   42    38    41    1
   43    41    42    1
   44    43    44    1
   45    43    45    1
   46    43    46    1
   47    46    47    1
   48    46    48    1
   49    48    49    1
   50    46    50    1
   51    50    51    1
   52    50    52    1
   53    52    53    1
   54    24    54    1
   55    50    54    1
   56    54    55    1
   57    54    56    1
   58    56    57    1
   59    43    58    1
   60    56    58    1
   61    56    59    1
   62    59    60    1
   63    59    61    1
   64    59    62    1
   65    62    63    1
   66    64    65    1
   67    64    66    1
   68    64    67    1
   69    67    68    1
   70    67    69    1
   71    69    70    1
   72    67    71    1
   73    71    72    1
   74    71    73    1
   75    73    74    1
   76    45    75    1
   77    71    75    1
   78    75    76    1
   79    75    77    1
   80    77    78    1
   81    64    79    1
   82    77    79    1
   83    77    80    1
   84    80    81    1
   85    80    82    1
   86    80    83    1
   87    83    84    1
   88    85    86    1
   89    85    87    1
   90    85    88    1
   91    88    89    1
   92    88    90    1
   93    90    91    1
   94    88    92    1
   95    92    93    1
   96    92    94    1
   97    94    95    1
   98    66    96    1
   99    92    96    1
  100    96    97    1
  101    96    98    1
  102    98    99    1
  103    85   100    1
  104    98   100    1
  105    98   101    1
  106   101   102    1
  107   101   103    1
  108   101   104    1
  109   104   105    1
  110   106   107    1
  111    12   108    1
  112   106   108    1
  113   106   109    1
  114   109   110    1
  115   109   111    1
  116   111   112    1
  117   109   113    1
  118   113   114    1
  119   113   115    1
  120   115   116    1
  121    87   117    1
  122   113   117    1
  123   117   118    1
  124   117   119    1
  125   119   120    1
  126   106   121    1
  127   119   121    1
  128   119   122    1
  129   122   123    1
  130   122   124    1
  131   122   125    1
  132   125   126    1
  133   127   128    1
  134   127   129    1
  135   127   130    1
  136   127   131    1
  137   131   132    1
  138   131   133    1
  139   131   134    1
  140   134   135    1
  141   134   136    1
  142   134   137    1
  143   137   138    1
  144   137   139    1
  145   137   140    1
  146   140   141    1
  147   140   142    1
  148   140   143    1
  149   143   144    1
  150   143   145    1
  151   145   146    1
  152   145   147    1
  153   145   148    1
  154   143   149    1
  155   149   150    1
  156   149   151    1
  157   149   152    1
@<TRIPOS>SUBSTRUCTURE
       1 MOL1            1 RESIDUE      1      MOL     
       2 MOL1          152 RESIDUE      1      MOL     
@<SCITEGIC>MOL_PROPERTY
feprocess Rank
SciTegic.value.IntegerValue
1

@<SCITEGIC>MOL_PROPERTY
Conf_Id
SciTegic.value.IntegerValue
9

@<SCITEGIC>MOL_PROPERTY
Probability
SciTegic.value.DoubleValue
71.47

@<SCITEGIC>MOL_PROPERTY
G
SciTegic.value.DoubleValue
553.343

@<SCITEGIC>MOL_PROPERTY
E
SciTegic.value.DoubleValue
348.592

@<SCITEGIC>MOL_PROPERTY
-TS
SciTegic.value.DoubleValue
204.752

@<SCITEGIC>MOL_PROPERTY
U+W
SciTegic.value.DoubleValue
214.455

@<SCITEGIC>MOL_PROPERTY
U
SciTegic.value.DoubleValue
299.984

@<SCITEGIC>MOL_PROPERTY
W
SciTegic.value.DoubleValue
-85.526

@<SCITEGIC>MOL_PROPERTY
W(PB)
SciTegic.value.DoubleValue
-91.559

@<SCITEGIC>MOL_PROPERTY
W(SA)
SciTegic.value.DoubleValue
6.033

@<SCITEGIC>MOL_PROPERTY
Valence
SciTegic.value.DoubleValue
148.786

@<SCITEGIC>MOL_PROPERTY
Coulomb
SciTegic.value.DoubleValue
178.734

@<SCITEGIC>MOL_PROPERTY
VdW
SciTegic.value.DoubleValue
-27.536

@<SCITEGIC>MOL_PROPERTY
VdW6
SciTegic.value.DoubleValue
-188.399

@<SCITEGIC>MOL_PROPERTY
VdW12
SciTegic.value.DoubleValue
160.863

@<SCITEGIC>MOL_PROPERTY
Bond
SciTegic.value.DoubleValue
4.757

@<SCITEGIC>MOL_PROPERTY
Angle
SciTegic.value.DoubleValue
12.659

@<SCITEGIC>MOL_PROPERTY
Pdih
SciTegic.value.DoubleValue
131.369

@<SCITEGIC>MOL_PROPERTY
Idih
SciTegic.value.DoubleValue
0.000

@<SCITEGIC>MOL_PROPERTY
Tether
SciTegic.value.DoubleValue
0.000

