@<TRIPOS>MOLECULE
CD_guest-s18_fast_vm2_rndm.mol2 : feprocess host+ligand conformer 1
         142         147           2
SMALL
USER_CHARGES
 
@<TRIPOS>ATOM
       1    C1      16.426838   15.522194   22.263769 C.3        1 MOL1         0.2972
       2    H1      15.378671   15.514009   22.586814 H          1 MOL1         0.0751
       3    O1      16.763792   16.750709   21.584611 O.3        1 MOL1        -0.3740
       4    C2      17.359500   15.354798   23.490024 C.3        1 MOL1         0.1003
       5    H2      17.159095   14.365918   23.921813 H          1 MOL1         0.0783
       6    O2      17.074617   16.357865   24.479388 O.3        1 MOL1        -0.5519
       7    H3      17.921727   16.823226   24.699243 H          1 MOL1         0.3769
       8    C3      18.840890   15.383568   23.039772 C.3        1 MOL1         0.1053
       9    H4      19.040278   16.365055   22.605234 H          1 MOL1         0.0783
      10    O3      19.709178   15.168973   24.159238 O.3        1 MOL1        -0.5519
      11    H5      19.734623   16.031821   24.652680 H          1 MOL1         0.3769
      12    C4      19.118262   14.341102   21.927394 C.3        1 MOL1         0.1018
      13    H6      19.178362   13.342272   22.379429 H          1 MOL1         0.0783
      14    C5      18.035399   14.367721   20.808783 C.3        1 MOL1         0.1043
      15    H7      18.205377   15.270916   20.211220 H          1 MOL1         0.0783
      16    O4      16.694278   14.423283   21.364034 O.3        1 MOL1        -0.3740
      17    C6      18.120816   13.161487   19.843779 C.3        1 MOL1         0.0138
      18    H8      19.031145   13.265020   19.237711 H          1 MOL1         0.0794
      19    H9      17.265112   13.200000   19.156433 H          1 MOL1         0.0794
      20    O5      18.143096   11.911144   20.543683 O.3        1 MOL1        -0.5486
      21    H10     18.124343   11.193847   19.873031 H          1 MOL1         0.3769
      22    C7      15.008479   20.244232   20.180986 C.3        1 MOL1         0.2972
      23    H11     14.396000   20.998761   19.670682 H          1 MOL1         0.0751
      24    O6      16.185689   20.827573   20.774939 O.3        1 MOL1        -0.3740
      25    C8      14.201642   19.542107   21.301655 C.3        1 MOL1         0.1003
      26    H12     13.332426   19.071547   20.823993 H          1 MOL1         0.0783
      27    O7      13.740215   20.489940   22.278371 O.3        1 MOL1        -0.5519
      28    H13     14.518936   21.039459   22.549756 H          1 MOL1         0.3769
      29    C9      15.029166   18.419932   21.982744 C.3        1 MOL1         0.1053
      30    H14     15.830121   18.889708   22.570690 H          1 MOL1         0.0783
      31    O8      14.153527   17.685595   22.844107 O.3        1 MOL1        -0.5519
      32    H15     13.702112   18.363852   23.392637 H          1 MOL1         0.3769
      33    C10     15.688961   17.467678   20.943930 C.3        1 MOL1         0.1018
      34    H16     14.926139   16.782968   20.552361 H          1 MOL1         0.0783
      35    C11     16.343315   18.242748   19.766901 C.3        1 MOL1         0.1043
      36    H17     17.226610   18.760118   20.156498 H          1 MOL1         0.0783
      37    O9      15.419682   19.225829   19.244570 O.3        1 MOL1        -0.3740
      38    C12     16.829360   17.343340   18.601469 C.3        1 MOL1         0.0138
      39    H18     17.825070   16.957577   18.852620 H          1 MOL1         0.0794
      40    H19     16.949516   17.966651   17.705468 H          1 MOL1         0.0794
      41    O10     15.944162   16.249695   18.327508 O.3        1 MOL1        -0.5486
      42    H20     15.959045   15.658157   19.111448 H          1 MOL1         0.3769
      43    C13     18.383253   24.269911   21.156828 C.3        1 MOL1         0.2972
      44    H21     18.818188   25.277069   21.190028 H          1 MOL1         0.0751
      45    O11     19.405750   23.249831   21.246173 O.3        1 MOL1        -0.3740
      46    C14     17.324131   24.075728   22.273572 C.3        1 MOL1         0.1003
      47    H22     16.488199   24.748707   22.041694 H          1 MOL1         0.0783
      48    O12     17.829712   24.415220   23.572127 O.3        1 MOL1        -0.5519
      49    H23     18.553274   23.770820   23.775045 H          1 MOL1         0.3769
      50    C15     16.783041   22.626054   22.238132 C.3        1 MOL1         0.1053
      51    H24     17.609055   21.942593   22.475306 H          1 MOL1         0.0783
      52    O13     15.739838   22.478328   23.207500 O.3        1 MOL1        -0.5519
      53    H25     16.084285   22.907812   24.021970 H          1 MOL1         0.3769
      54    C16     16.241218   22.267216   20.830336 C.3        1 MOL1         0.1018
      55    H26     15.245099   22.717464   20.727241 H          1 MOL1         0.0783
      56    C17     17.164305   22.745698   19.667128 C.3        1 MOL1         0.1043
      57    H27     18.016241   22.060970   19.600125 H          1 MOL1         0.0783
      58    O14     17.673265   24.082452   19.913631 O.3        1 MOL1        -0.3740
      59    C18     16.470037   22.730519   18.284369 C.3        1 MOL1         0.0138
      60    H28     16.322932   21.685216   17.980524 H          1 MOL1         0.0794
      61    H29     17.144126   23.190993   17.549755 H          1 MOL1         0.0794
      62    O15     15.210333   23.414181   18.302277 O.3        1 MOL1        -0.5486
      63    H30     14.865379   23.426458   17.382750 H          1 MOL1         0.3769
      64    C19     23.271619   22.398501   22.488132 C.3        1 MOL1         0.2972
      65    H31     24.280783   22.411265   22.915190 H          1 MOL1         0.0751
      66    O16     23.070936   21.266986   21.613743 O.3        1 MOL1        -0.3740
      67    C20     22.212806   22.342382   23.619506 C.3        1 MOL1         0.1003
      68    H32     22.337765   23.245455   24.230470 H          1 MOL1         0.0783
      69    O17     22.432001   21.186193   24.446473 O.3        1 MOL1        -0.5519
      70    H33     21.555194   20.833160   24.743361 H          1 MOL1         0.3769
      71    C21     20.779558   22.367709   23.029267 C.3        1 MOL1         0.1053
      72    H34     20.629332   21.439975   22.468098 H          1 MOL1         0.0783
      73    O18     19.822078   22.470073   24.091144 O.3        1 MOL1        -0.5519
      74    H35     19.807735   21.591129   24.553620 H          1 MOL1         0.3769
      75    C22     20.581775   23.543672   22.035365 C.3        1 MOL1         0.1018
      76    H36     20.470872   24.474557   22.606924 H          1 MOL1         0.0783
      77    C23     21.763906   23.676228   21.033935 C.3        1 MOL1         0.1043
      78    H37     21.698016   22.843920   20.321581 H          1 MOL1         0.0783
      79    O19     23.035731   23.603633   21.727320 O.3        1 MOL1        -0.3740
      80    C24     21.725605   24.986180   20.210894 C.3        1 MOL1         0.0138
      81    H38     20.886806   24.927276   19.504055 H          1 MOL1         0.0794
      82    H39     22.647685   25.054636   19.618326 H          1 MOL1         0.0794
      83    O20     21.579131   26.145082   21.041690 O.3        1 MOL1        -0.5486
      84    H40     21.635763   26.935968   20.462150 H          1 MOL1         0.3769
      85    C25     24.948222   17.680123   20.676586 C.3        1 MOL1         0.2972
      86    H41     25.619387   16.898247   20.298796 H          1 MOL1         0.0751
      87    O21     23.697417   17.130718   21.139904 O.3        1 MOL1        -0.3740
      88    C26     25.604171   18.428857   21.860780 C.3        1 MOL1         0.1003
      89    H42     26.543248   18.857912   21.487677 H          1 MOL1         0.0783
      90    O22     25.900743   17.522092   22.936105 O.3        1 MOL1        -0.5519
      91    H43     25.120068   16.921042   23.039860 H          1 MOL1         0.3769
      92    C27     24.720717   19.601225   22.363558 C.3        1 MOL1         0.1053
      93    H44     23.837468   19.180914   22.864941 H          1 MOL1         0.0783
      94    O23     25.503837   20.357466   23.293040 O.3        1 MOL1        -0.5519
      95    H45     25.830533   19.701141   23.946496 H          1 MOL1         0.3769
      96    C28     24.228805   20.510298   21.196958 C.3        1 MOL1         0.1018
      97    H46     25.045840   21.174314   20.888926 H          1 MOL1         0.0783
      98    C29     23.739537   19.685553   19.975095 C.3        1 MOL1         0.1043
      99    H47     22.790109   19.216532   20.251837 H          1 MOL1         0.0783
     100    O24     24.690295   18.649215   19.640445 O.3        1 MOL1        -0.3740
     101    C30     23.469644   20.538964   18.711074 C.3        1 MOL1         0.0138
     102    H48     22.555496   21.124671   18.872929 H          1 MOL1         0.0794
     103    H49     23.272779   19.861475   17.869773 H          1 MOL1         0.0794
     104    O25     24.556030   21.417547   18.392421 O.3        1 MOL1        -0.5486
     105    H50     24.574583   22.121756   19.075118 H          1 MOL1         0.3769
     106    C31     21.370478   13.718477   21.120843 C.3        1 MOL1         0.2972
     107    H51     20.928034   12.717719   21.034522 H          1 MOL1         0.0751
     108    O26     20.357002   14.732214   21.296421 O.3        1 MOL1        -0.3740
     109    C32     22.393472   13.785866   22.285738 C.3        1 MOL1         0.1003
     110    H52     23.218696   13.109568   22.027054 H          1 MOL1         0.0783
     111    O27     21.823809   13.355163   23.530063 O.3        1 MOL1        -0.5519
     112    H53     21.081011   13.976125   23.738931 H          1 MOL1         0.3769
     113    C33     22.976110   15.215978   22.403720 C.3        1 MOL1         0.1053
     114    H54     22.164274   15.893342   22.695605 H          1 MOL1         0.0783
     115    O28     24.002453   15.235905   23.401548 O.3        1 MOL1        -0.5519
     116    H55     23.627358   14.743406   24.165166 H          1 MOL1         0.3769
     117    C34     23.557851   15.696789   21.049229 C.3        1 MOL1         0.1018
     118    H56     24.526318   15.199709   20.906842 H          1 MOL1         0.0783
     119    C35     22.629115   15.387677   19.838468 C.3        1 MOL1         0.1043
     120    H57     21.788558   16.089682   19.865286 H          1 MOL1         0.0783
     121    O29     22.106682   14.036475   19.920738 O.3        1 MOL1        -0.3740
     122    C36     23.326057   15.561117   18.467786 C.3        1 MOL1         0.0138
     123    H58     23.496805   16.632440   18.296925 H          1 MOL1         0.0794
     124    H59     22.643807   15.211221   17.681604 H          1 MOL1         0.0794
     125    O30     24.570659   14.852993   18.399281 O.3        1 MOL1        -0.5486
     126    H60     24.929101   14.969396   17.492454 H          1 MOL1         0.3769
     127    C1      19.587636   18.904801   24.529754 C.2        1 MOL1         0.6075
     128    O1      20.008434   19.890849   25.106043 O.co2      1 MOL1        -0.6830
     129    O2      19.423146   17.816472   25.050889 O.co2      1 MOL1        -0.6830
     130    C2      19.276037   19.032027   23.044832 C.3        1 MOL1        -0.2050
     131    H1      18.974382   20.062713   22.842766 H          1 MOL1         0.0710
     132    H2      18.396257   18.418586   22.831757 H          1 MOL1         0.0710
     133    C3      20.472818   18.613101   22.147976 C.3        1 MOL1        -0.1947
     134    H3      21.307819   19.310173   22.287833 H          1 MOL1         0.0712
     135    H4      20.844471   17.638965   22.483633 H          1 MOL1         0.0712
     136    C4      20.105256   18.512664   20.652632 C.3        1 MOL1        -0.1921
     137    H5      19.268786   17.814271   20.531596 H          1 MOL1         0.0712
     138    H6      20.944931   18.079710   20.099815 H          1 MOL1         0.0712
     139    C5      19.756409   19.879980   20.035413 C.3        1 MOL1        -0.2936
     140    H7      18.891740   20.319996   20.542102 H          1 MOL1         0.0724
     141    H8      19.514147   19.778199   18.970277 H          1 MOL1         0.0724
     142    H9      20.594521   20.579943   20.133250 H          1 MOL1         0.0724
@<TRIPOS>BOND
    1     1     2    1
    2     1     3    1
    3     1     4    1
    4     4     5    1
    5     4     6    1
    6     6     7    1
    7     4     8    1
    8     8     9    1
    9     8    10    1
   10    10    11    1
   11     8    12    1
   12    12    13    1
   13    12    14    1
   14    14    15    1
   15     1    16    1
   16    14    16    1
   17    14    17    1
   18    17    18    1
   19    17    19    1
   20    17    20    1
   21    20    21    1
   22    22    23    1
   23    22    24    1
   24    22    25    1
   25    25    26    1
   26    25    27    1
   27    27    28    1
   28    25    29    1
   29    29    30    1
   30    29    31    1
   31    31    32    1
   32     3    33    1
   33    29    33    1
   34    33    34    1
   35    33    35    1
   36    35    36    1
   37    22    37    1
   38    35    37    1
   39    35    38    1
   40    38    39    1
   41    38    40    1
   42    38    41    1
   43    41    42    1
   44    43    44    1
   45    43    45    1
   46    43    46    1
   47    46    47    1
   48    46    48    1
   49    48    49    1
   50    46    50    1
   51    50    51    1
   52    50    52    1
   53    52    53    1
   54    24    54    1
   55    50    54    1
   56    54    55    1
   57    54    56    1
   58    56    57    1
   59    43    58    1
   60    56    58    1
   61    56    59    1
   62    59    60    1
   63    59    61    1
   64    59    62    1
   65    62    63    1
   66    64    65    1
   67    64    66    1
   68    64    67    1
   69    67    68    1
   70    67    69    1
   71    69    70    1
   72    67    71    1
   73    71    72    1
   74    71    73    1
   75    73    74    1
   76    45    75    1
   77    71    75    1
   78    75    76    1
   79    75    77    1
   80    77    78    1
   81    64    79    1
   82    77    79    1
   83    77    80    1
   84    80    81    1
   85    80    82    1
   86    80    83    1
   87    83    84    1
   88    85    86    1
   89    85    87    1
   90    85    88    1
   91    88    89    1
   92    88    90    1
   93    90    91    1
   94    88    92    1
   95    92    93    1
   96    92    94    1
   97    94    95    1
   98    66    96    1
   99    92    96    1
  100    96    97    1
  101    96    98    1
  102    98    99    1
  103    85   100    1
  104    98   100    1
  105    98   101    1
  106   101   102    1
  107   101   103    1
  108   101   104    1
  109   104   105    1
  110   106   107    1
  111    12   108    1
  112   106   108    1
  113   106   109    1
  114   109   110    1
  115   109   111    1
  116   111   112    1
  117   109   113    1
  118   113   114    1
  119   113   115    1
  120   115   116    1
  121    87   117    1
  122   113   117    1
  123   117   118    1
  124   117   119    1
  125   119   120    1
  126   106   121    1
  127   119   121    1
  128   119   122    1
  129   122   123    1
  130   122   124    1
  131   122   125    1
  132   125   126    1
  133   127   128    1
  134   127   129    2
  135   127   130    1
  136   130   131    1
  137   130   132    1
  138   130   133    1
  139   133   134    1
  140   133   135    1
  141   133   136    1
  142   136   137    1
  143   136   138    1
  144   136   139    1
  145   139   140    1
  146   139   141    1
  147   139   142    1
@<TRIPOS>SUBSTRUCTURE
       1 MOL1            1 RESIDUE      1      MOL     
       2 MOL1          142 RESIDUE      1      MOL     
@<SCITEGIC>MOL_PROPERTY
feprocess Rank
SciTegic.value.IntegerValue
1

@<SCITEGIC>MOL_PROPERTY
Conf_Id
SciTegic.value.IntegerValue
964

@<SCITEGIC>MOL_PROPERTY
Probability
SciTegic.value.DoubleValue
25.60

@<SCITEGIC>MOL_PROPERTY
G
SciTegic.value.DoubleValue
489.584

@<SCITEGIC>MOL_PROPERTY
E
SciTegic.value.DoubleValue
304.851

@<SCITEGIC>MOL_PROPERTY
-TS
SciTegic.value.DoubleValue
184.732

@<SCITEGIC>MOL_PROPERTY
U+W
SciTegic.value.DoubleValue
179.657

@<SCITEGIC>MOL_PROPERTY
U
SciTegic.value.DoubleValue
253.842

@<SCITEGIC>MOL_PROPERTY
W
SciTegic.value.DoubleValue
-74.185

@<SCITEGIC>MOL_PROPERTY
W(PB)
SciTegic.value.DoubleValue
-80.201

@<SCITEGIC>MOL_PROPERTY
W(SA)
SciTegic.value.DoubleValue
6.016

@<SCITEGIC>MOL_PROPERTY
Valence
SciTegic.value.DoubleValue
150.314

@<SCITEGIC>MOL_PROPERTY
Coulomb
SciTegic.value.DoubleValue
124.779

@<SCITEGIC>MOL_PROPERTY
VdW
SciTegic.value.DoubleValue
-21.250

@<SCITEGIC>MOL_PROPERTY
VdW6
SciTegic.value.DoubleValue
-183.394

@<SCITEGIC>MOL_PROPERTY
VdW12
SciTegic.value.DoubleValue
162.144

@<SCITEGIC>MOL_PROPERTY
Bond
SciTegic.value.DoubleValue
5.436

@<SCITEGIC>MOL_PROPERTY
Angle
SciTegic.value.DoubleValue
15.094

@<SCITEGIC>MOL_PROPERTY
Pdih
SciTegic.value.DoubleValue
129.782

@<SCITEGIC>MOL_PROPERTY
Idih
SciTegic.value.DoubleValue
0.001

@<SCITEGIC>MOL_PROPERTY
Tether
SciTegic.value.DoubleValue
0.000

