@<TRIPOS>MOLECULE
CD_guest-7_fast_vm2_rndm.mol2 : feprocess host+ligand conformer 1
         145         150           2
SMALL
USER_CHARGES
 
@<TRIPOS>ATOM
       1    C1      16.207311   15.354795   21.559009 C.3        1 MOL1         0.2972
       2    H1      15.132865   15.213586   21.733031 H          1 MOL1         0.0751
       3    O1      16.493228   16.665143   21.033755 O.3        1 MOL1        -0.3740
       4    C2      16.998125   15.153016   22.876839 C.3        1 MOL1         0.1003
       5    H2      16.816145   14.121837   23.206494 H          1 MOL1         0.0783
       6    O2      16.562803   16.056841   23.905289 O.3        1 MOL1        -0.5519
       7    H3      15.751660   16.511224   23.572068 H          1 MOL1         0.3769
       8    C3      18.515867   15.317953   22.638679 C.3        1 MOL1         0.1053
       9    H4      18.706073   16.369437   22.385681 H          1 MOL1         0.0783
      10    O3      19.210118   14.969915   23.840827 O.3        1 MOL1        -0.5519
      11    H5      18.725866   15.449721   24.549946 H          1 MOL1         0.3769
      12    C4      19.013841   14.442892   21.461806 C.3        1 MOL1         0.1018
      13    H6      19.085673   13.401730   21.803026 H          1 MOL1         0.0783
      14    C5      18.085259   14.531815   20.216817 C.3        1 MOL1         0.1043
      15    H7      18.227497   15.519693   19.759296 H          1 MOL1         0.0783
      16    O4      16.695137   14.385493   20.607566 O.3        1 MOL1        -0.3740
      17    C6      18.403031   13.476638   19.130471 C.3        1 MOL1         0.0138
      18    H8      19.356093   13.744141   18.654368 H          1 MOL1         0.0794
      19    H9      17.626317   13.527576   18.355720 H          1 MOL1         0.0794
      20    O5      18.484076   12.150835   19.669057 O.3        1 MOL1        -0.5486
      21    H10     18.604557   11.530659   18.917119 H          1 MOL1         0.3769
      22    C7      14.761017   20.361529   20.474346 C.3        1 MOL1         0.2972
      23    H11     14.165147   21.242856   20.204358 H          1 MOL1         0.0751
      24    O6      16.076907   20.728527   20.938767 O.3        1 MOL1        -0.3740
      25    C8      14.050977   19.503009   21.553365 C.3        1 MOL1         0.1003
      26    H12     13.130054   19.115056   21.098694 H          1 MOL1         0.0783
      27    O7      13.699395   20.272031   22.712487 O.3        1 MOL1        -0.5519
      28    H13     14.543958   20.613716   23.101438 H          1 MOL1         0.3769
      29    C9      14.933646   18.290672   21.941081 C.3        1 MOL1         0.1053
      30    H14     15.841093   18.668973   22.432793 H          1 MOL1         0.0783
      31    O8      14.203707   17.454562   22.845454 O.3        1 MOL1        -0.5519
      32    H15     13.742411   18.078287   23.451324 H          1 MOL1         0.3769
      33    C10     15.362049   17.484203   20.683274 C.3        1 MOL1         0.1018
      34    H16     14.514780   16.876097   20.342273 H          1 MOL1         0.0783
      35    C11     15.839866   18.390910   19.513496 C.3        1 MOL1         0.1043
      36    H17     16.828678   18.784940   19.772652 H          1 MOL1         0.0783
      37    O9      14.930012   19.503870   19.325393 O.3        1 MOL1        -0.3740
      38    C12     16.005800   17.639895   18.169544 C.3        1 MOL1         0.0138
      39    H18     16.895158   16.998907   18.236859 H          1 MOL1         0.0794
      40    H19     16.199531   18.378947   17.380936 H          1 MOL1         0.0794
      41    O10     14.861897   16.846412   17.829898 O.3        1 MOL1        -0.5486
      42    H20     14.878202   16.047485   18.399413 H          1 MOL1         0.3769
      43    C13     18.525154   23.731504   22.275129 C.3        1 MOL1         0.2972
      44    H21     18.996023   24.643893   22.661308 H          1 MOL1         0.0751
      45    O11     19.509820   22.800336   21.780392 O.3        1 MOL1        -0.3740
      46    C14     17.703437   23.051477   23.398877 C.3        1 MOL1         0.1003
      47    H22     16.904562   23.746623   23.687249 H          1 MOL1         0.0783
      48    O12     18.541937   22.807712   24.540014 O.3        1 MOL1        -0.5519
      49    H23     18.271211   21.947835   24.951270 H          1 MOL1         0.3769
      50    C15     17.033600   21.755583   22.877296 C.3        1 MOL1         0.1053
      51    H24     17.823491   21.026198   22.657375 H          1 MOL1         0.0783
      52    O13     16.142680   21.225660   23.867343 O.3        1 MOL1        -0.5519
      53    H25     16.711322   20.836067   24.582598 H          1 MOL1         0.3769
      54    C16     16.237066   22.012949   21.570739 C.3        1 MOL1         0.1018
      55    H26     15.273053   22.472325   21.826457 H          1 MOL1         0.0783
      56    C17     17.000089   22.900667   20.547625 C.3        1 MOL1         0.1043
      57    H27     17.781570   22.276068   20.102979 H          1 MOL1         0.0783
      58    O14     17.622469   24.041935   21.191527 O.3        1 MOL1        -0.3740
      59    C18     16.112265   23.409973   19.387126 C.3        1 MOL1         0.0138
      60    H28     15.854631   22.556206   18.745765 H          1 MOL1         0.0794
      61    H29     16.698301   24.110081   18.776710 H          1 MOL1         0.0794
      62    O15     14.915863   24.041303   19.859558 O.3        1 MOL1        -0.5486
      63    H30     14.442599   24.405123   19.079660 H          1 MOL1         0.3769
      64    C19     23.523390   22.601398   20.770655 C.3        1 MOL1         0.2972
      65    H31     24.533800   22.741074   20.365205 H          1 MOL1         0.0751
      66    O16     23.361222   21.303974   21.369791 O.3        1 MOL1        -0.3740
      67    C20     23.203382   23.660538   21.853332 C.3        1 MOL1         0.1003
      68    H32     23.280986   24.645617   21.375162 H          1 MOL1         0.0783
      69    O17     24.143982   23.587773   22.937818 O.3        1 MOL1        -0.5519
      70    H33     24.163327   22.646537   23.246927 H          1 MOL1         0.3769
      71    C21     21.755305   23.502355   22.386274 C.3        1 MOL1         0.1053
      72    H34     21.708014   22.584639   22.989452 H          1 MOL1         0.0783
      73    O18     21.456320   24.640278   23.201365 O.3        1 MOL1        -0.5519
      74    H35     22.200529   24.705052   23.838848 H          1 MOL1         0.3769
      75    C22     20.715244   23.373163   21.236578 C.3        1 MOL1         0.1018
      76    H36     20.533678   24.369260   20.813375 H          1 MOL1         0.0783
      77    C23     21.183121   22.411556   20.107504 C.3        1 MOL1         0.1043
      78    H37     21.155043   21.386771   20.498005 H          1 MOL1         0.0783
      79    O19     22.539736   22.737915   19.723675 O.3        1 MOL1        -0.3740
      80    C24     20.293558   22.422703   18.837633 C.3        1 MOL1         0.0138
      81    H38     19.490334   21.687685   18.972101 H          1 MOL1         0.0794
      82    H39     20.893939   22.075099   17.986442 H          1 MOL1         0.0794
      83    O20     19.732618   23.710900   18.550983 O.3        1 MOL1        -0.5486
      84    H40     19.155277   23.954932   19.308179 H          1 MOL1         0.3769
      85    C25     25.150155   17.677929   21.988608 C.3        1 MOL1         0.2972
      86    H41     25.808599   16.814113   22.146788 H          1 MOL1         0.0751
      87    O21     23.771436   17.279169   21.863828 O.3        1 MOL1        -0.3740
      88    C26     25.257881   18.644310   23.190946 C.3        1 MOL1         0.1003
      89    H42     26.295056   19.000026   23.243844 H          1 MOL1         0.0783
      90    O22     24.923230   17.958437   24.407621 O.3        1 MOL1        -0.5519
      91    H43     24.267280   17.260926   24.165459 H          1 MOL1         0.3769
      92    C27     24.337110   19.869043   22.988730 C.3        1 MOL1         0.1053
      93    H44     23.298904   19.518336   23.041659 H          1 MOL1         0.0783
      94    O23     24.573773   20.826933   24.026301 O.3        1 MOL1        -0.5519
      95    H45     24.558864   20.306480   24.860083 H          1 MOL1         0.3769
      96    C28     24.550753   20.532641   21.605869 C.3        1 MOL1         0.1018
      97    H46     25.450896   21.159974   21.651013 H          1 MOL1         0.0783
      98    C29     24.657019   19.507267   20.440940 C.3        1 MOL1         0.1043
      99    H47     23.646347   19.123857   20.253243 H          1 MOL1         0.0783
     100    O24     25.524189   18.399779   20.797738 O.3        1 MOL1        -0.3740
     101    C30     25.166472   20.119016   19.114003 C.3        1 MOL1         0.0138
     102    H48     24.378789   20.763623   18.701154 H          1 MOL1         0.0794
     103    H49     25.331923   19.306445   18.393815 H          1 MOL1         0.0794
     104    O25     26.369520   20.875798   19.295714 O.3        1 MOL1        -0.5486
     105    H50     26.676970   21.164711   18.408891 H          1 MOL1         0.3769
     106    C31     21.363183   14.033616   20.846594 C.3        1 MOL1         0.2972
     107    H51     20.976443   13.067665   20.497552 H          1 MOL1         0.0751
     108    O26     20.295797   14.976004   21.075012 O.3        1 MOL1        -0.3740
     109    C32     22.203626   13.866899   22.143280 C.3        1 MOL1         0.1003
     110    H52     23.049000   13.212273   21.894594 H          1 MOL1         0.0783
     111    O27     21.448156   13.259915   23.201944 O.3        1 MOL1        -0.5519
     112    H53     20.692516   13.868449   23.403109 H          1 MOL1         0.3769
     113    C33     22.780170   15.229845   22.598705 C.3        1 MOL1         0.1053
     114    H54     21.942240   15.874621   22.898062 H          1 MOL1         0.0783
     115    O28     23.661941   15.033917   23.709799 O.3        1 MOL1        -0.5519
     116    H55     23.183211   14.424335   24.314060 H          1 MOL1         0.3769
     117    C34     23.541148   15.923206   21.441235 C.3        1 MOL1         0.1018
     118    H56     24.478706   15.378978   21.267563 H          1 MOL1         0.0783
     119    C35     22.711001   15.947298   20.126502 C.3        1 MOL1         0.1043
     120    H57     21.855215   16.615852   20.276700 H          1 MOL1         0.0783
     121    O29     22.233877   14.606949   19.846637 O.3        1 MOL1        -0.3740
     122    C36     23.466510   16.462736   18.873864 C.3        1 MOL1         0.0138
     123    H58     23.308499   17.544493   18.790749 H          1 MOL1         0.0794
     124    H59     23.009529   16.011969   17.982819 H          1 MOL1         0.0794
     125    O30     24.870727   16.180682   18.898679 O.3        1 MOL1        -0.5486
     126    H60     25.282857   16.832445   19.512881 H          1 MOL1         0.3769
     127    C1      18.887513   19.353051   25.511231 C.2        1 MOL1         0.6115
     128    O1      19.524473   18.929028   26.455069 O.co2      1 MOL1        -0.6776
     129    O2      18.069977   20.250863   25.593759 O.co2      1 MOL1        -0.6776
     130    C2      19.136371   18.740520   24.137381 C.3        1 MOL1        -0.2013
     131    H1      18.196564   18.779230   23.576307 H          1 MOL1         0.0727
     132    H2      19.381972   17.684330   24.285815 H          1 MOL1         0.0727
     133    C3      20.280701   19.439524   23.358216 C.3        1 MOL1        -0.1910
     134    H3      20.061633   20.510214   23.252862 H          1 MOL1         0.0729
     135    H4      21.196160   19.372612   23.960309 H          1 MOL1         0.0729
     136    C4      20.547182   18.818550   21.966191 C.3        1 MOL1        -0.1909
     137    H5      20.722730   17.740819   22.072408 H          1 MOL1         0.0729
     138    H6      21.473424   19.246286   21.563688 H          1 MOL1         0.0729
     139    C5      19.402660   19.065715   20.959631 C.3        1 MOL1        -0.1884
     140    H7      18.489440   18.567900   21.306584 H          1 MOL1         0.0729
     141    H8      19.178339   20.138440   20.912364 H          1 MOL1         0.0729
     142    C6      19.760669   18.554446   19.549375 C.3        1 MOL1        -0.2899
     143    H9      18.978872   18.822342   18.828489 H          1 MOL1         0.0741
     144    H10     20.705082   18.991161   19.200374 H          1 MOL1         0.0741
     145    H11     19.861666   17.462147   19.546915 H          1 MOL1         0.0741
@<TRIPOS>BOND
    1     1     2    1
    2     1     3    1
    3     1     4    1
    4     4     5    1
    5     4     6    1
    6     6     7    1
    7     4     8    1
    8     8     9    1
    9     8    10    1
   10    10    11    1
   11     8    12    1
   12    12    13    1
   13    12    14    1
   14    14    15    1
   15     1    16    1
   16    14    16    1
   17    14    17    1
   18    17    18    1
   19    17    19    1
   20    17    20    1
   21    20    21    1
   22    22    23    1
   23    22    24    1
   24    22    25    1
   25    25    26    1
   26    25    27    1
   27    27    28    1
   28    25    29    1
   29    29    30    1
   30    29    31    1
   31    31    32    1
   32     3    33    1
   33    29    33    1
   34    33    34    1
   35    33    35    1
   36    35    36    1
   37    22    37    1
   38    35    37    1
   39    35    38    1
   40    38    39    1
   41    38    40    1
   42    38    41    1
   43    41    42    1
   44    43    44    1
   45    43    45    1
   46    43    46    1
   47    46    47    1
   48    46    48    1
   49    48    49    1
   50    46    50    1
   51    50    51    1
   52    50    52    1
   53    52    53    1
   54    24    54    1
   55    50    54    1
   56    54    55    1
   57    54    56    1
   58    56    57    1
   59    43    58    1
   60    56    58    1
   61    56    59    1
   62    59    60    1
   63    59    61    1
   64    59    62    1
   65    62    63    1
   66    64    65    1
   67    64    66    1
   68    64    67    1
   69    67    68    1
   70    67    69    1
   71    69    70    1
   72    67    71    1
   73    71    72    1
   74    71    73    1
   75    73    74    1
   76    45    75    1
   77    71    75    1
   78    75    76    1
   79    75    77    1
   80    77    78    1
   81    64    79    1
   82    77    79    1
   83    77    80    1
   84    80    81    1
   85    80    82    1
   86    80    83    1
   87    83    84    1
   88    85    86    1
   89    85    87    1
   90    85    88    1
   91    88    89    1
   92    88    90    1
   93    90    91    1
   94    88    92    1
   95    92    93    1
   96    92    94    1
   97    94    95    1
   98    66    96    1
   99    92    96    1
  100    96    97    1
  101    96    98    1
  102    98    99    1
  103    85   100    1
  104    98   100    1
  105    98   101    1
  106   101   102    1
  107   101   103    1
  108   101   104    1
  109   104   105    1
  110   106   107    1
  111    12   108    1
  112   106   108    1
  113   106   109    1
  114   109   110    1
  115   109   111    1
  116   111   112    1
  117   109   113    1
  118   113   114    1
  119   113   115    1
  120   115   116    1
  121    87   117    1
  122   113   117    1
  123   117   118    1
  124   117   119    1
  125   119   120    1
  126   106   121    1
  127   119   121    1
  128   119   122    1
  129   122   123    1
  130   122   124    1
  131   122   125    1
  132   125   126    1
  133   127   128    1
  134   127   129    2
  135   127   130    1
  136   130   131    1
  137   130   132    1
  138   130   133    1
  139   133   134    1
  140   133   135    1
  141   133   136    1
  142   136   137    1
  143   136   138    1
  144   136   139    1
  145   139   140    1
  146   139   141    1
  147   139   142    1
  148   142   143    1
  149   142   144    1
  150   142   145    1
@<TRIPOS>SUBSTRUCTURE
       1 MOL1            1 RESIDUE      1      MOL     
       2 MOL1          145 RESIDUE      1      MOL     
@<SCITEGIC>MOL_PROPERTY
feprocess Rank
SciTegic.value.IntegerValue
1

@<SCITEGIC>MOL_PROPERTY
Conf_Id
SciTegic.value.IntegerValue
98

@<SCITEGIC>MOL_PROPERTY
Probability
SciTegic.value.DoubleValue
62.54

@<SCITEGIC>MOL_PROPERTY
G
SciTegic.value.DoubleValue
497.387

@<SCITEGIC>MOL_PROPERTY
E
SciTegic.value.DoubleValue
310.070

@<SCITEGIC>MOL_PROPERTY
-TS
SciTegic.value.DoubleValue
187.317

@<SCITEGIC>MOL_PROPERTY
U+W
SciTegic.value.DoubleValue
182.193

@<SCITEGIC>MOL_PROPERTY
U
SciTegic.value.DoubleValue
263.532

@<SCITEGIC>MOL_PROPERTY
W
SciTegic.value.DoubleValue
-81.339

@<SCITEGIC>MOL_PROPERTY
W(PB)
SciTegic.value.DoubleValue
-87.381

@<SCITEGIC>MOL_PROPERTY
W(SA)
SciTegic.value.DoubleValue
6.043

@<SCITEGIC>MOL_PROPERTY
Valence
SciTegic.value.DoubleValue
151.107

@<SCITEGIC>MOL_PROPERTY
Coulomb
SciTegic.value.DoubleValue
137.853

@<SCITEGIC>MOL_PROPERTY
VdW
SciTegic.value.DoubleValue
-25.428

@<SCITEGIC>MOL_PROPERTY
VdW6
SciTegic.value.DoubleValue
-184.008

@<SCITEGIC>MOL_PROPERTY
VdW12
SciTegic.value.DoubleValue
158.580

@<SCITEGIC>MOL_PROPERTY
Bond
SciTegic.value.DoubleValue
4.818

@<SCITEGIC>MOL_PROPERTY
Angle
SciTegic.value.DoubleValue
14.394

@<SCITEGIC>MOL_PROPERTY
Pdih
SciTegic.value.DoubleValue
131.894

@<SCITEGIC>MOL_PROPERTY
Idih
SciTegic.value.DoubleValue
0.001

@<SCITEGIC>MOL_PROPERTY
Tether
SciTegic.value.DoubleValue
0.000

@<TRIPOS>MOLECULE
CD_guest-7_fast_vm2_rndm.mol2 : feprocess host+ligand conformer 2
         145         150           2
SMALL
USER_CHARGES
 
@<TRIPOS>ATOM
       1    C1      16.184707   15.315642   22.023578 C.3        1 MOL1         0.2972
       2    H1      15.132805   15.176756   22.304702 H          1 MOL1         0.0751
       3    O1      16.442934   16.676837   21.625440 O.3        1 MOL1        -0.3740
       4    C2      17.098094   14.946291   23.220264 C.3        1 MOL1         0.1003
       5    H2      16.955033   13.877329   23.423891 H          1 MOL1         0.0783
       6    O2      16.717117   15.694193   24.385684 O.3        1 MOL1        -0.5519
       7    H3      17.542703   16.017936   24.827933 H          1 MOL1         0.3769
       8    C3      18.585910   15.159330   22.850156 C.3        1 MOL1         0.1053
       9    H4      18.745069   16.232974   22.688769 H          1 MOL1         0.0783
      10    O3      19.438169   14.693615   23.905321 O.3        1 MOL1        -0.5519
      11    H5      19.399970   15.385823   24.617478 H          1 MOL1         0.3769
      12    C4      18.947210   14.418049   21.537862 C.3        1 MOL1         0.1018
      13    H6      19.061421   13.347444   21.753344 H          1 MOL1         0.0783
      14    C5      17.895584   14.631110   20.411858 C.3        1 MOL1         0.1043
      15    H7      18.018015   15.659383   20.052165 H          1 MOL1         0.0783
      16    O4      16.542515   14.463241   20.913899 O.3        1 MOL1        -0.3740
      17    C6      18.087909   13.695526   19.194439 C.3        1 MOL1         0.0138
      18    H8      18.994348   14.005000   18.656799 H          1 MOL1         0.0794
      19    H9      17.241020   13.831646   18.508533 H          1 MOL1         0.0794
      20    O5      18.198229   12.320897   19.582991 O.3        1 MOL1        -0.5486
      21    H10     18.232264   11.780807   18.763483 H          1 MOL1         0.3769
      22    C7      14.803387   20.195030   20.317393 C.3        1 MOL1         0.2972
      23    H11     14.238528   21.028508   19.880715 H          1 MOL1         0.0751
      24    O6      16.128011   20.609355   20.718182 O.3        1 MOL1        -0.3740
      25    C8      14.045935   19.571239   21.518623 C.3        1 MOL1         0.1003
      26    H12     13.106663   19.163657   21.122567 H          1 MOL1         0.0783
      27    O7      13.733940   20.542564   22.528324 O.3        1 MOL1        -0.5519
      28    H13     14.597290   20.830797   22.918729 H          1 MOL1         0.3769
      29    C9      14.848919   18.395764   22.126551 C.3        1 MOL1         0.1053
      30    H14     15.737781   18.807370   22.624667 H          1 MOL1         0.0783
      31    O8      14.020431   17.723414   23.080695 O.3        1 MOL1        -0.5519
      32    H15     13.686845   18.426104   23.679407 H          1 MOL1         0.3769
      33    C10     15.329665   17.387042   21.048183 C.3        1 MOL1         0.1018
      34    H16     14.492902   16.718304   20.809480 H          1 MOL1         0.0783
      35    C11     15.842339   18.060050   19.739021 C.3        1 MOL1         0.1043
      36    H17     16.831980   18.481598   19.941190 H          1 MOL1         0.0783
      37    O9      14.950925   19.134238   19.348566 O.3        1 MOL1        -0.3740
      38    C12     16.021319   17.101331   18.530898 C.3        1 MOL1         0.0138
      39    H18     17.070575   16.784788   18.490903 H          1 MOL1         0.0794
      40    H19     15.833619   17.665228   17.607397 H          1 MOL1         0.0794
      41    O10     15.171697   15.947877   18.578658 O.3        1 MOL1        -0.5486
      42    H20     15.481803   15.386172   19.327110 H          1 MOL1         0.3769
      43    C13     18.488950   23.814580   21.842736 C.3        1 MOL1         0.2972
      44    H21     18.892530   24.782492   22.166682 H          1 MOL1         0.0751
      45    O11     19.532013   22.928207   21.393404 O.3        1 MOL1        -0.3740
      46    C14     17.722252   23.138639   23.006757 C.3        1 MOL1         0.1003
      47    H22     16.895045   23.806982   23.279087 H          1 MOL1         0.0783
      48    O12     18.565317   22.945530   24.153874 O.3        1 MOL1        -0.5519
      49    H23     19.428801   23.383134   23.956819 H          1 MOL1         0.3769
      50    C15     17.118358   21.788750   22.558723 C.3        1 MOL1         0.1053
      51    H24     17.946599   21.095089   22.360333 H          1 MOL1         0.0783
      52    O13     16.301716   21.281445   23.618862 O.3        1 MOL1        -0.5519
      53    H25     16.863491   21.368062   24.421836 H          1 MOL1         0.3769
      54    C16     16.287564   21.936810   21.257572 C.3        1 MOL1         0.1018
      55    H26     15.324269   22.402961   21.501895 H          1 MOL1         0.0783
      56    C17     17.020689   22.779952   20.175355 C.3        1 MOL1         0.1043
      57    H27     17.846063   22.175640   19.779287 H          1 MOL1         0.0783
      58    O14     17.560679   23.996540   20.752916 O.3        1 MOL1        -0.3740
      59    C18     16.120767   23.162605   18.976169 C.3        1 MOL1         0.0138
      60    H28     15.919801   22.255926   18.389621 H          1 MOL1         0.0794
      61    H29     16.676410   23.853555   18.328107 H          1 MOL1         0.0794
      62    O15     14.884217   23.755239   19.393221 O.3        1 MOL1        -0.5486
      63    H30     14.404302   24.042773   18.586045 H          1 MOL1         0.3769
      64    C19     23.687979   22.764639   21.242168 C.3        1 MOL1         0.2972
      65    H31     24.755941   22.961742   21.083004 H          1 MOL1         0.0751
      66    O16     23.440863   21.394945   21.606055 O.3        1 MOL1        -0.3740
      67    C20     23.123055   23.648980   22.381823 C.3        1 MOL1         0.1003
      68    H32     23.250682   24.696328   22.078724 H          1 MOL1         0.0783
      69    O17     23.834140   23.423522   23.609900 O.3        1 MOL1        -0.5519
      70    H33     23.928256   22.443321   23.721402 H          1 MOL1         0.3769
      71    C21     21.607811   23.388819   22.579337 C.3        1 MOL1         0.1053
      72    H34     21.480824   22.364628   22.957014 H          1 MOL1         0.0783
      73    O18     21.100104   24.324557   23.536306 O.3        1 MOL1        -0.5519
      74    H35     21.786411   24.361519   24.240920 H          1 MOL1         0.3769
      75    C22     20.839665   23.509612   21.234675 C.3        1 MOL1         0.1018
      76    H36     20.777073   24.568272   20.952344 H          1 MOL1         0.0783
      77    C23     21.530852   22.720903   20.089479 C.3        1 MOL1         0.1043
      78    H37     21.422857   21.648035   20.295259 H          1 MOL1         0.0783
      79    O19     22.938364   23.057675   20.043751 O.3        1 MOL1        -0.3740
      80    C24     20.912999   22.980968   18.692275 C.3        1 MOL1         0.0138
      81    H38     19.956882   22.446380   18.626511 H          1 MOL1         0.0794
      82    H39     21.576812   22.548389   17.932137 H          1 MOL1         0.0794
      83    O20     20.700301   24.372945   18.426997 O.3        1 MOL1        -0.5486
      84    H40     19.931127   24.658753   18.965761 H          1 MOL1         0.3769
      85    C25     25.070912   17.643325   21.864976 C.3        1 MOL1         0.2972
      86    H41     25.695815   16.743660   21.937207 H          1 MOL1         0.0751
      87    O21     23.680203   17.311410   21.694373 O.3        1 MOL1        -0.3740
      88    C26     25.208224   18.481964   23.156892 C.3        1 MOL1         0.1003
      89    H42     26.256623   18.795931   23.242590 H          1 MOL1         0.0783
      90    O22     24.849689   17.694035   24.303039 O.3        1 MOL1        -0.5519
      91    H43     24.255396   16.975613   23.976856 H          1 MOL1         0.3769
      92    C27     24.330021   19.750431   23.074077 C.3        1 MOL1         0.1053
      93    H44     23.280742   19.432569   23.077494 H          1 MOL1         0.0783
      94    O23     24.581301   20.585083   24.209377 O.3        1 MOL1        -0.5519
      95    H45     24.554307   19.975982   24.980709 H          1 MOL1         0.3769
      96    C28     24.587813   20.542996   21.769319 C.3        1 MOL1         0.1018
      97    H46     25.518990   21.113256   21.884263 H          1 MOL1         0.0783
      98    C29     24.658447   19.638848   20.505925 C.3        1 MOL1         0.1043
      99    H47     23.634278   19.321986   20.275071 H          1 MOL1         0.0783
     100    O24     25.474539   18.462962   20.748707 O.3        1 MOL1        -0.3740
     101    C30     25.206103   20.365322   19.254462 C.3        1 MOL1         0.0138
     102    H48     24.458253   21.096712   18.919920 H          1 MOL1         0.0794
     103    H49     25.326881   19.631065   18.446633 H          1 MOL1         0.0794
     104    O25     26.449818   21.026999   19.517082 O.3        1 MOL1        -0.5486
     105    H50     26.764777   21.415258   18.671859 H          1 MOL1         0.3769
     106    C31     21.213765   14.135111   20.603480 C.3        1 MOL1         0.2972
     107    H51     20.798841   13.207420   20.189155 H          1 MOL1         0.0751
     108    O26     20.174006   15.014207   21.075014 O.3        1 MOL1        -0.3740
     109    C32     22.207471   13.841039   21.761868 C.3        1 MOL1         0.1003
     110    H52     23.027000   13.245851   21.338648 H          1 MOL1         0.0783
     111    O27     21.592923   13.092194   22.821122 O.3        1 MOL1        -0.5519
     112    H53     20.854316   13.648093   23.178140 H          1 MOL1         0.3769
     113    C33     22.811484   15.158552   22.307421 C.3        1 MOL1         0.1053
     114    H54     22.004417   15.737105   22.776041 H          1 MOL1         0.0783
     115    O28     23.822249   14.863465   23.277409 O.3        1 MOL1        -0.5519
     116    H55     23.433360   14.165207   23.849716 H          1 MOL1         0.3769
     117    C34     23.413119   16.004631   21.158282 C.3        1 MOL1         0.1018
     118    H56     24.326410   15.510767   20.801156 H          1 MOL1         0.0783
     119    C35     22.426764   16.164921   19.969208 C.3        1 MOL1         0.1043
     120    H57     21.584112   16.782761   20.303110 H          1 MOL1         0.0783
     121    O29     21.944684   14.852448   19.582929 O.3        1 MOL1        -0.3740
     122    C36     23.021193   16.863117   18.718015 C.3        1 MOL1         0.0138
     123    H58     22.832452   17.940382   18.799468 H          1 MOL1         0.0794
     124    H59     22.473550   16.515801   17.831812 H          1 MOL1         0.0794
     125    O30     24.425672   16.632445   18.549081 O.3        1 MOL1        -0.5486
     126    H60     24.891704   17.151974   19.245279 H          1 MOL1         0.3769
     127    C1      19.127188   18.096633   25.525518 C.2        1 MOL1         0.6115
     128    O1      19.293269   18.773281   26.520882 O.co2      1 MOL1        -0.6776
     129    O2      18.978029   16.888424   25.545015 O.co2      1 MOL1        -0.6776
     130    C2      19.125365   18.792885   24.168205 C.3        1 MOL1        -0.2013
     131    H1      18.953406   19.863419   24.330856 H          1 MOL1         0.0727
     132    H2      18.269249   18.408709   23.602961 H          1 MOL1         0.0727
     133    C3      20.449460   18.582493   23.387891 C.3        1 MOL1        -0.1910
     134    H3      21.275791   18.956048   24.006174 H          1 MOL1         0.0729
     135    H4      20.629225   17.509259   23.250642 H          1 MOL1         0.0729
     136    C4      20.485978   19.291966   22.014234 C.3        1 MOL1        -0.1909
     137    H5      21.490297   19.178373   21.587529 H          1 MOL1         0.0729
     138    H6      20.324034   20.368170   22.153859 H          1 MOL1         0.0729
     139    C5      19.451619   18.734310   21.013827 C.3        1 MOL1        -0.1884
     140    H7      19.557586   17.645852   20.936053 H          1 MOL1         0.0729
     141    H8      18.438619   18.928427   21.385805 H          1 MOL1         0.0729
     142    C6      19.612144   19.365938   19.617808 C.3        1 MOL1        -0.2899
     143    H9      18.911649   18.916764   18.903308 H          1 MOL1         0.0741
     144    H10     19.407177   20.440886   19.661669 H          1 MOL1         0.0741
     145    H11     20.629420   19.221205   19.233315 H          1 MOL1         0.0741
@<TRIPOS>BOND
    1     1     2    1
    2     1     3    1
    3     1     4    1
    4     4     5    1
    5     4     6    1
    6     6     7    1
    7     4     8    1
    8     8     9    1
    9     8    10    1
   10    10    11    1
   11     8    12    1
   12    12    13    1
   13    12    14    1
   14    14    15    1
   15     1    16    1
   16    14    16    1
   17    14    17    1
   18    17    18    1
   19    17    19    1
   20    17    20    1
   21    20    21    1
   22    22    23    1
   23    22    24    1
   24    22    25    1
   25    25    26    1
   26    25    27    1
   27    27    28    1
   28    25    29    1
   29    29    30    1
   30    29    31    1
   31    31    32    1
   32     3    33    1
   33    29    33    1
   34    33    34    1
   35    33    35    1
   36    35    36    1
   37    22    37    1
   38    35    37    1
   39    35    38    1
   40    38    39    1
   41    38    40    1
   42    38    41    1
   43    41    42    1
   44    43    44    1
   45    43    45    1
   46    43    46    1
   47    46    47    1
   48    46    48    1
   49    48    49    1
   50    46    50    1
   51    50    51    1
   52    50    52    1
   53    52    53    1
   54    24    54    1
   55    50    54    1
   56    54    55    1
   57    54    56    1
   58    56    57    1
   59    43    58    1
   60    56    58    1
   61    56    59    1
   62    59    60    1
   63    59    61    1
   64    59    62    1
   65    62    63    1
   66    64    65    1
   67    64    66    1
   68    64    67    1
   69    67    68    1
   70    67    69    1
   71    69    70    1
   72    67    71    1
   73    71    72    1
   74    71    73    1
   75    73    74    1
   76    45    75    1
   77    71    75    1
   78    75    76    1
   79    75    77    1
   80    77    78    1
   81    64    79    1
   82    77    79    1
   83    77    80    1
   84    80    81    1
   85    80    82    1
   86    80    83    1
   87    83    84    1
   88    85    86    1
   89    85    87    1
   90    85    88    1
   91    88    89    1
   92    88    90    1
   93    90    91    1
   94    88    92    1
   95    92    93    1
   96    92    94    1
   97    94    95    1
   98    66    96    1
   99    92    96    1
  100    96    97    1
  101    96    98    1
  102    98    99    1
  103    85   100    1
  104    98   100    1
  105    98   101    1
  106   101   102    1
  107   101   103    1
  108   101   104    1
  109   104   105    1
  110   106   107    1
  111    12   108    1
  112   106   108    1
  113   106   109    1
  114   109   110    1
  115   109   111    1
  116   111   112    1
  117   109   113    1
  118   113   114    1
  119   113   115    1
  120   115   116    1
  121    87   117    1
  122   113   117    1
  123   117   118    1
  124   117   119    1
  125   119   120    1
  126   106   121    1
  127   119   121    1
  128   119   122    1
  129   122   123    1
  130   122   124    1
  131   122   125    1
  132   125   126    1
  133   127   128    1
  134   127   129    2
  135   127   130    1
  136   130   131    1
  137   130   132    1
  138   130   133    1
  139   133   134    1
  140   133   135    1
  141   133   136    1
  142   136   137    1
  143   136   138    1
  144   136   139    1
  145   139   140    1
  146   139   141    1
  147   139   142    1
  148   142   143    1
  149   142   144    1
  150   142   145    1
@<TRIPOS>SUBSTRUCTURE
       1 MOL1            1 RESIDUE      1      MOL     
       2 MOL1          145 RESIDUE      1      MOL     
@<SCITEGIC>MOL_PROPERTY
feprocess Rank
SciTegic.value.IntegerValue
2

@<SCITEGIC>MOL_PROPERTY
Conf_Id
SciTegic.value.IntegerValue
814

@<SCITEGIC>MOL_PROPERTY
Probability
SciTegic.value.DoubleValue
9.06

@<SCITEGIC>MOL_PROPERTY
G
SciTegic.value.DoubleValue
498.538

@<SCITEGIC>MOL_PROPERTY
E
SciTegic.value.DoubleValue
311.546

@<SCITEGIC>MOL_PROPERTY
-TS
SciTegic.value.DoubleValue
186.992

@<SCITEGIC>MOL_PROPERTY
U+W
SciTegic.value.DoubleValue
183.670

@<SCITEGIC>MOL_PROPERTY
U
SciTegic.value.DoubleValue
264.957

@<SCITEGIC>MOL_PROPERTY
W
SciTegic.value.DoubleValue
-81.287

@<SCITEGIC>MOL_PROPERTY
W(PB)
SciTegic.value.DoubleValue
-87.307

@<SCITEGIC>MOL_PROPERTY
W(SA)
SciTegic.value.DoubleValue
6.020

@<SCITEGIC>MOL_PROPERTY
Valence
SciTegic.value.DoubleValue
152.729

@<SCITEGIC>MOL_PROPERTY
Coulomb
SciTegic.value.DoubleValue
137.479

@<SCITEGIC>MOL_PROPERTY
VdW
SciTegic.value.DoubleValue
-25.252

@<SCITEGIC>MOL_PROPERTY
VdW6
SciTegic.value.DoubleValue
-183.821

@<SCITEGIC>MOL_PROPERTY
VdW12
SciTegic.value.DoubleValue
158.569

@<SCITEGIC>MOL_PROPERTY
Bond
SciTegic.value.DoubleValue
4.872

@<SCITEGIC>MOL_PROPERTY
Angle
SciTegic.value.DoubleValue
14.233

@<SCITEGIC>MOL_PROPERTY
Pdih
SciTegic.value.DoubleValue
133.623

@<SCITEGIC>MOL_PROPERTY
Idih
SciTegic.value.DoubleValue
0.001

@<SCITEGIC>MOL_PROPERTY
Tether
SciTegic.value.DoubleValue
0.000

@<TRIPOS>MOLECULE
CD_guest-7_fast_vm2_rndm.mol2 : feprocess host+ligand conformer 3
         145         150           2
SMALL
USER_CHARGES
 
@<TRIPOS>ATOM
       1    C1      16.391850   15.336184   20.170876 C.3        1 MOL1         0.2972
       2    H1      15.452215   15.178478   19.625845 H          1 MOL1         0.0751
       3    O1      16.467901   16.663569   20.728812 O.3        1 MOL1        -0.3740
       4    C2      16.540535   14.316958   21.327867 C.3        1 MOL1         0.1003
       5    H2      16.535780   13.316235   20.876568 H          1 MOL1         0.0783
       6    O2      15.445434   14.415593   22.252844 O.3        1 MOL1        -0.5519
       7    H3      15.363735   15.367551   22.515819 H          1 MOL1         0.3769
       8    C3      17.893218   14.495071   22.065504 C.3        1 MOL1         0.1053
       9    H4      17.862657   15.443422   22.620054 H          1 MOL1         0.0783
      10    O3      18.053375   13.400396   22.973200 O.3        1 MOL1        -0.5519
      11    H5      17.214431   13.361843   23.482534 H          1 MOL1         0.3769
      12    C4      19.090919   14.552237   21.075061 C.3        1 MOL1         0.1018
      13    H6      19.312612   13.533935   20.731407 H          1 MOL1         0.0783
      14    C5      18.808538   15.463230   19.847551 C.3        1 MOL1         0.1043
      15    H7      18.797896   16.504719   20.191691 H          1 MOL1         0.0783
      16    O4      17.514869   15.143801   19.284700 O.3        1 MOL1        -0.3740
      17    C6      19.876669   15.371061   18.726235 C.3        1 MOL1         0.0138
      18    H8      20.671312   16.094881   18.945427 H          1 MOL1         0.0794
      19    H9      19.418286   15.685740   17.779307 H          1 MOL1         0.0794
      20    O5      20.442535   14.061033   18.586620 O.3        1 MOL1        -0.5486
      21    H10     20.918745   13.856745   19.421843 H          1 MOL1         0.3769
      22    C7      14.565587   20.284066   21.003704 C.3        1 MOL1         0.2972
      23    H11     13.906332   21.161593   21.006305 H          1 MOL1         0.0751
      24    O6      15.956760   20.664790   21.107816 O.3        1 MOL1        -0.3740
      25    C8      14.200756   19.301046   22.145924 C.3        1 MOL1         0.1003
      26    H12     13.199908   18.907908   21.924334 H          1 MOL1         0.0783
      27    O7      14.162880   19.946773   23.426320 O.3        1 MOL1        -0.5519
      28    H13     15.075956   20.286309   23.607022 H          1 MOL1         0.3769
      29    C9      15.186222   18.107734   22.147747 C.3        1 MOL1         0.1053
      30    H14     16.186670   18.489020   22.390326 H          1 MOL1         0.0783
      31    O8      14.781047   17.153386   23.134886 O.3        1 MOL1        -0.5519
      32    H15     14.585446   17.684565   23.938783 H          1 MOL1         0.3769
      33    C10     15.245575   17.426712   20.755354 C.3        1 MOL1         0.1018
      34    H16     14.360995   16.784029   20.654639 H          1 MOL1         0.0783
      35    C11     15.306089   18.437267   19.569469 C.3        1 MOL1         0.1043
      36    H17     16.323083   18.837645   19.512013 H          1 MOL1         0.0783
      37    O9      14.391816   19.543990   19.776549 O.3        1 MOL1        -0.3740
      38    C12     15.003091   17.795988   18.194469 C.3        1 MOL1         0.0138
      39    H18     15.847465   17.149422   17.919266 H          1 MOL1         0.0794
      40    H19     14.945909   18.593805   17.441944 H          1 MOL1         0.0794
      41    O10     13.789291   17.033711   18.206849 O.3        1 MOL1        -0.5486
      42    H20     13.624563   16.721559   17.290345 H          1 MOL1         0.3769
      43    C13     18.538333   23.751422   22.135212 C.3        1 MOL1         0.2972
      44    H21     18.994121   24.686684   22.483173 H          1 MOL1         0.0751
      45    O11     19.471855   22.957852   21.372592 O.3        1 MOL1        -0.3740
      46    C14     18.029026   22.913128   23.337068 C.3        1 MOL1         0.1003
      47    H22     17.271747   23.515099   23.855485 H          1 MOL1         0.0783
      48    O12     19.095664   22.617785   24.250886 O.3        1 MOL1        -0.5519
      49    H23     19.822989   23.257821   24.069625 H          1 MOL1         0.3769
      50    C15     17.350849   21.610341   22.845398 C.3        1 MOL1         0.1053
      51    H24     18.117544   20.992611   22.367289 H          1 MOL1         0.0783
      52    O13     16.787529   20.906570   23.957850 O.3        1 MOL1        -0.5519
      53    H25     17.561616   20.562738   24.483884 H          1 MOL1         0.3769
      54    C16     16.255180   21.904747   21.786768 C.3        1 MOL1         0.1018
      55    H26     15.374447   22.314769   22.298459 H          1 MOL1         0.0783
      56    C17     16.744520   22.897730   20.694046 C.3        1 MOL1         0.1043
      57    H27     17.464576   22.371622   20.054101 H          1 MOL1         0.0783
      58    O14     17.399975   24.042278   21.296614 O.3        1 MOL1        -0.3740
      59    C18     15.607094   23.408881   19.777643 C.3        1 MOL1         0.0138
      60    H28     15.275159   22.577911   19.140387 H          1 MOL1         0.0794
      61    H29     16.012781   24.185803   19.115936 H          1 MOL1         0.0794
      62    O15     14.496362   23.920355   20.525745 O.3        1 MOL1        -0.5486
      63    H30     13.850151   24.288839   19.884549 H          1 MOL1         0.3769
      64    C19     23.620468   22.711514   20.863912 C.3        1 MOL1         0.2972
      65    H31     24.665681   22.925564   20.609179 H          1 MOL1         0.0751
      66    O16     23.431754   21.331317   21.235910 O.3        1 MOL1        -0.3740
      67    C20     23.171358   23.593276   22.054550 C.3        1 MOL1         0.1003
      68    H32     23.284635   24.639816   21.742756 H          1 MOL1         0.0783
      69    O17     23.994793   23.359618   23.208400 O.3        1 MOL1        -0.5519
      70    H33     24.188763   22.388617   23.243116 H          1 MOL1         0.3769
      71    C21     21.677821   23.363267   22.395956 C.3        1 MOL1         0.1053
      72    H34     21.567372   22.340467   22.781788 H          1 MOL1         0.0783
      73    O18     21.305451   24.311559   23.402233 O.3        1 MOL1        -0.5519
      74    H35     22.075560   24.338948   24.015567 H          1 MOL1         0.3769
      75    C22     20.784214   23.510407   21.130178 C.3        1 MOL1         0.1018
      76    H36     20.720871   24.570783   20.855006 H          1 MOL1         0.0783
      77    C23     21.358524   22.704309   19.933357 C.3        1 MOL1         0.1043
      78    H37     21.256957   21.641114   20.170629 H          1 MOL1         0.0783
      79    O19     22.761359   23.012544   19.744061 O.3        1 MOL1        -0.3740
      80    C24     20.606808   22.939713   18.600117 C.3        1 MOL1         0.0138
      81    H38     19.640501   22.419719   18.649082 H          1 MOL1         0.0794
      82    H39     21.181897   22.474992   17.788463 H          1 MOL1         0.0794
      83    O20     20.394290   24.329251   18.322744 O.3        1 MOL1        -0.5486
      84    H40     19.708953   24.649603   18.947725 H          1 MOL1         0.3769
      85    C25     25.160222   17.575676   21.252463 C.3        1 MOL1         0.2972
      86    H41     25.795930   16.684483   21.172598 H          1 MOL1         0.0751
      87    O21     23.772951   17.222139   21.441215 O.3        1 MOL1        -0.3740
      88    C26     25.626792   18.502383   22.406522 C.3        1 MOL1         0.1003
      89    H42     26.632754   18.856905   22.146588 H          1 MOL1         0.0783
      90    O22     25.696010   17.808598   23.660569 O.3        1 MOL1        -0.5519
      91    H43     24.778767   17.499530   23.871414 H          1 MOL1         0.3769
      92    C27     24.701255   19.740260   22.507773 C.3        1 MOL1         0.1053
      93    H44     23.702112   19.397457   22.806651 H          1 MOL1         0.0783
      94    O23     25.215376   20.643695   23.491492 O.3        1 MOL1        -0.5519
      95    H45     25.452421   20.078157   24.259997 H          1 MOL1         0.3769
      96    C28     24.583083   20.467054   21.142911 C.3        1 MOL1         0.1018
      97    H46     25.510621   21.029729   20.977066 H          1 MOL1         0.0783
      98    C29     24.346506   19.488157   19.956433 C.3        1 MOL1         0.1043
      99    H47     23.320033   19.114736   20.023500 H          1 MOL1         0.0783
     100    O24     25.251938   18.358413   20.042299 O.3        1 MOL1        -0.3740
     101    C30     24.495021   20.139418   18.559847 C.3        1 MOL1         0.0138
     102    H48     23.639729   20.807219   18.389329 H          1 MOL1         0.0794
     103    H49     24.439570   19.346053   17.802759 H          1 MOL1         0.0794
     104    O25     25.720906   20.867653   18.415752 O.3        1 MOL1        -0.5486
     105    H50     25.564072   21.780485   18.736396 H          1 MOL1         0.3769
     106    C31     21.107358   14.242531   22.447069 C.3        1 MOL1         0.2972
     107    H51     20.583140   13.339822   22.784571 H          1 MOL1         0.0751
     108    O26     20.219607   15.140881   21.749905 O.3        1 MOL1        -0.3740
     109    C32     21.718081   14.985219   23.661872 C.3        1 MOL1         0.1003
     110    H52     22.475726   14.324829   24.102745 H          1 MOL1         0.0783
     111    O27     20.709042   15.254442   24.648945 O.3        1 MOL1        -0.5519
     112    H53     20.667983   16.235747   24.783139 H          1 MOL1         0.3769
     113    C33     22.429651   16.275863   23.187954 C.3        1 MOL1         0.1053
     114    H54     21.677041   16.926189   22.734042 H          1 MOL1         0.0783
     115    O28     23.038014   16.950895   24.295556 O.3        1 MOL1        -0.5519
     116    H55     22.294265   17.415144   24.764018 H          1 MOL1         0.3769
     117    C34     23.481343   15.967903   22.092698 C.3        1 MOL1         0.1018
     118    H56     24.369931   15.525783   22.562372 H          1 MOL1         0.0783
     119    C35     22.923190   15.024956   20.986744 C.3        1 MOL1         0.1043
     120    H57     22.235079   15.618162   20.374146 H          1 MOL1         0.0783
     121    O29     22.192670   13.904387   21.554230 O.3        1 MOL1        -0.3740
     122    C36     24.015358   14.473777   20.039735 C.3        1 MOL1         0.0138
     123    H58     24.388601   15.300825   19.420543 H          1 MOL1         0.0794
     124    H59     23.556665   13.740829   19.362521 H          1 MOL1         0.0794
     125    O30     25.101440   13.877235   20.759420 O.3        1 MOL1        -0.5486
     126    H60     25.715892   13.485461   20.100958 H          1 MOL1         0.3769
     127    C1      19.627018   18.651486   24.516219 C.2        1 MOL1         0.6115
     128    O1      20.550457   18.042177   25.027044 O.co2      1 MOL1        -0.6776
     129    O2      18.829856   19.332312   25.131481 O.co2      1 MOL1        -0.6776
     130    C2      19.431510   18.504172   23.011856 C.3        1 MOL1        -0.2013
     131    H1      18.409104   18.805814   22.769595 H          1 MOL1         0.0727
     132    H2      19.502094   17.439678   22.771821 H          1 MOL1         0.0727
     133    C3      20.456507   19.321401   22.180136 C.3        1 MOL1        -0.1910
     134    H3      20.291764   20.393802   22.341167 H          1 MOL1         0.0729
     135    H4      21.467097   19.117217   22.552250 H          1 MOL1         0.0729
     136    C4      20.407228   18.995785   20.670643 C.3        1 MOL1        -0.1909
     137    H5      20.566446   17.920951   20.523197 H          1 MOL1         0.0729
     138    H6      21.239251   19.498492   20.171104 H          1 MOL1         0.0729
     139    C5      19.089942   19.441270   20.006420 C.3        1 MOL1        -0.1884
     140    H7      18.255101   18.887382   20.449647 H          1 MOL1         0.0729
     141    H8      18.914544   20.502941   20.216976 H          1 MOL1         0.0729
     142    C6      19.107435   19.226322   18.480386 C.3        1 MOL1        -0.2899
     143    H9      18.172808   19.583902   18.030176 H          1 MOL1         0.0741
     144    H10     19.937707   19.773760   18.016414 H          1 MOL1         0.0741
     145    H11     19.216828   18.164225   18.233558 H          1 MOL1         0.0741
@<TRIPOS>BOND
    1     1     2    1
    2     1     3    1
    3     1     4    1
    4     4     5    1
    5     4     6    1
    6     6     7    1
    7     4     8    1
    8     8     9    1
    9     8    10    1
   10    10    11    1
   11     8    12    1
   12    12    13    1
   13    12    14    1
   14    14    15    1
   15     1    16    1
   16    14    16    1
   17    14    17    1
   18    17    18    1
   19    17    19    1
   20    17    20    1
   21    20    21    1
   22    22    23    1
   23    22    24    1
   24    22    25    1
   25    25    26    1
   26    25    27    1
   27    27    28    1
   28    25    29    1
   29    29    30    1
   30    29    31    1
   31    31    32    1
   32     3    33    1
   33    29    33    1
   34    33    34    1
   35    33    35    1
   36    35    36    1
   37    22    37    1
   38    35    37    1
   39    35    38    1
   40    38    39    1
   41    38    40    1
   42    38    41    1
   43    41    42    1
   44    43    44    1
   45    43    45    1
   46    43    46    1
   47    46    47    1
   48    46    48    1
   49    48    49    1
   50    46    50    1
   51    50    51    1
   52    50    52    1
   53    52    53    1
   54    24    54    1
   55    50    54    1
   56    54    55    1
   57    54    56    1
   58    56    57    1
   59    43    58    1
   60    56    58    1
   61    56    59    1
   62    59    60    1
   63    59    61    1
   64    59    62    1
   65    62    63    1
   66    64    65    1
   67    64    66    1
   68    64    67    1
   69    67    68    1
   70    67    69    1
   71    69    70    1
   72    67    71    1
   73    71    72    1
   74    71    73    1
   75    73    74    1
   76    45    75    1
   77    71    75    1
   78    75    76    1
   79    75    77    1
   80    77    78    1
   81    64    79    1
   82    77    79    1
   83    77    80    1
   84    80    81    1
   85    80    82    1
   86    80    83    1
   87    83    84    1
   88    85    86    1
   89    85    87    1
   90    85    88    1
   91    88    89    1
   92    88    90    1
   93    90    91    1
   94    88    92    1
   95    92    93    1
   96    92    94    1
   97    94    95    1
   98    66    96    1
   99    92    96    1
  100    96    97    1
  101    96    98    1
  102    98    99    1
  103    85   100    1
  104    98   100    1
  105    98   101    1
  106   101   102    1
  107   101   103    1
  108   101   104    1
  109   104   105    1
  110   106   107    1
  111    12   108    1
  112   106   108    1
  113   106   109    1
  114   109   110    1
  115   109   111    1
  116   111   112    1
  117   109   113    1
  118   113   114    1
  119   113   115    1
  120   115   116    1
  121    87   117    1
  122   113   117    1
  123   117   118    1
  124   117   119    1
  125   119   120    1
  126   106   121    1
  127   119   121    1
  128   119   122    1
  129   122   123    1
  130   122   124    1
  131   122   125    1
  132   125   126    1
  133   127   128    1
  134   127   129    2
  135   127   130    1
  136   130   131    1
  137   130   132    1
  138   130   133    1
  139   133   134    1
  140   133   135    1
  141   133   136    1
  142   136   137    1
  143   136   138    1
  144   136   139    1
  145   139   140    1
  146   139   141    1
  147   139   142    1
  148   142   143    1
  149   142   144    1
  150   142   145    1
@<TRIPOS>SUBSTRUCTURE
       1 MOL1            1 RESIDUE      1      MOL     
       2 MOL1          145 RESIDUE      1      MOL     
@<SCITEGIC>MOL_PROPERTY
feprocess Rank
SciTegic.value.IntegerValue
3

@<SCITEGIC>MOL_PROPERTY
Conf_Id
SciTegic.value.IntegerValue
3

@<SCITEGIC>MOL_PROPERTY
Probability
SciTegic.value.DoubleValue
6.10

@<SCITEGIC>MOL_PROPERTY
G
SciTegic.value.DoubleValue
498.774

@<SCITEGIC>MOL_PROPERTY
E
SciTegic.value.DoubleValue
309.681

@<SCITEGIC>MOL_PROPERTY
-TS
SciTegic.value.DoubleValue
189.093

@<SCITEGIC>MOL_PROPERTY
U+W
SciTegic.value.DoubleValue
181.804

@<SCITEGIC>MOL_PROPERTY
U
SciTegic.value.DoubleValue
260.580

@<SCITEGIC>MOL_PROPERTY
W
SciTegic.value.DoubleValue
-78.775

@<SCITEGIC>MOL_PROPERTY
W(PB)
SciTegic.value.DoubleValue
-84.746

@<SCITEGIC>MOL_PROPERTY
W(SA)
SciTegic.value.DoubleValue
5.970

@<SCITEGIC>MOL_PROPERTY
Valence
SciTegic.value.DoubleValue
152.137

@<SCITEGIC>MOL_PROPERTY
Coulomb
SciTegic.value.DoubleValue
133.046

@<SCITEGIC>MOL_PROPERTY
VdW
SciTegic.value.DoubleValue
-24.603

@<SCITEGIC>MOL_PROPERTY
VdW6
SciTegic.value.DoubleValue
-187.422

@<SCITEGIC>MOL_PROPERTY
VdW12
SciTegic.value.DoubleValue
162.819

@<SCITEGIC>MOL_PROPERTY
Bond
SciTegic.value.DoubleValue
5.307

@<SCITEGIC>MOL_PROPERTY
Angle
SciTegic.value.DoubleValue
14.690

@<SCITEGIC>MOL_PROPERTY
Pdih
SciTegic.value.DoubleValue
132.136

@<SCITEGIC>MOL_PROPERTY
Idih
SciTegic.value.DoubleValue
0.004

@<SCITEGIC>MOL_PROPERTY
Tether
SciTegic.value.DoubleValue
0.000

@<TRIPOS>MOLECULE
CD_guest-7_fast_vm2_rndm.mol2 : feprocess host+ligand conformer 4
         145         150           2
SMALL
USER_CHARGES
 
@<TRIPOS>ATOM
       1    C1      16.391516   15.345175   20.158651 C.3        1 MOL1         0.2972
       2    H1      15.452265   15.180257   19.615103 H          1 MOL1         0.0751
       3    O1      16.466635   16.681147   20.698079 O.3        1 MOL1        -0.3740
       4    C2      16.538586   14.340599   21.328904 C.3        1 MOL1         0.1003
       5    H2      16.534039   13.334506   20.889685 H          1 MOL1         0.0783
       6    O2      15.441882   14.449334   22.250634 O.3        1 MOL1        -0.5519
       7    H3      15.350291   15.405971   22.492519 H          1 MOL1         0.3769
       8    C3      17.891048   14.525505   22.065865 C.3        1 MOL1         0.1053
       9    H4      17.863970   15.482683   22.605128 H          1 MOL1         0.0783
      10    O3      18.045346   13.444310   22.990524 O.3        1 MOL1        -0.5519
      11    H5      17.205083   13.416732   23.498379 H          1 MOL1         0.3769
      12    C4      19.089525   14.561215   21.075323 C.3        1 MOL1         0.1018
      13    H6      19.304795   13.536852   20.745951 H          1 MOL1         0.0783
      14    C5      18.810142   15.455330   19.835276 C.3        1 MOL1         0.1043
      15    H7      18.803010   16.500508   20.165888 H          1 MOL1         0.0783
      16    O4      17.514691   15.136883   19.275767 O.3        1 MOL1        -0.3740
      17    C6      19.879962   15.342178   18.717441 C.3        1 MOL1         0.0138
      18    H8      20.685184   16.054495   18.936032 H          1 MOL1         0.0794
      19    H9      19.428847   15.658887   17.767739 H          1 MOL1         0.0794
      20    O5      20.426659   14.023328   18.585799 O.3        1 MOL1        -0.5486
      21    H10     20.908878   13.821437   19.418055 H          1 MOL1         0.3769
      22    C7      14.573379   20.315599   20.930909 C.3        1 MOL1         0.2972
      23    H11     13.918327   21.196170   20.919233 H          1 MOL1         0.0751
      24    O6      15.964271   20.693377   21.064079 O.3        1 MOL1        -0.3740
      25    C8      14.170654   19.327552   22.056685 C.3        1 MOL1         0.1003
      26    H12     13.180011   18.932575   21.795722 H          1 MOL1         0.0783
      27    O7      14.077973   19.965486   23.337913 O.3        1 MOL1        -0.5519
      28    H13     14.988285   20.278162   23.568878 H          1 MOL1         0.3769
      29    C9      15.157667   18.135529   22.086729 C.3        1 MOL1         0.1053
      30    H14     16.153257   18.516662   22.349290 H          1 MOL1         0.0783
      31    O8      14.729925   17.185338   23.068036 O.3        1 MOL1        -0.5519
      32    H15     14.496039   17.721355   23.858383 H          1 MOL1         0.3769
      33    C10     15.247014   17.451484   20.697503 C.3        1 MOL1         0.1018
      34    H16     14.361760   16.813112   20.577406 H          1 MOL1         0.0783
      35    C11     15.336349   18.462716   19.513291 C.3        1 MOL1         0.1043
      36    H17     16.355459   18.858326   19.477740 H          1 MOL1         0.0783
      37    O9      14.425154   19.576952   19.698965 O.3        1 MOL1        -0.3740
      38    C12     15.060592   17.821089   18.132896 C.3        1 MOL1         0.0138
      39    H18     15.905701   17.166553   17.879496 H          1 MOL1         0.0794
      40    H19     15.028059   18.617559   17.377486 H          1 MOL1         0.0794
      41    O10     13.840347   17.069208   18.118567 O.3        1 MOL1        -0.5486
      42    H20     13.696133   16.753572   17.199803 H          1 MOL1         0.3769
      43    C13     18.592470   23.638901   22.336653 C.3        1 MOL1         0.2972
      44    H21     19.074714   24.527414   22.759929 H          1 MOL1         0.0751
      45    O11     19.500585   22.873001   21.516128 O.3        1 MOL1        -0.3740
      46    C14     18.064014   22.725571   23.472667 C.3        1 MOL1         0.1003
      47    H22     17.323817   23.303315   24.040797 H          1 MOL1         0.0783
      48    O12     19.140627   22.354160   24.351190 O.3        1 MOL1        -0.5519
      49    H23     18.997515   21.423027   24.657117 H          1 MOL1         0.3769
      50    C15     17.344398   21.484509   22.885967 C.3        1 MOL1         0.1053
      51    H24     18.093824   20.874703   22.372291 H          1 MOL1         0.0783
      52    O13     16.733461   20.735211   23.944050 O.3        1 MOL1        -0.5519
      53    H25     17.466881   20.289581   24.443739 H          1 MOL1         0.3769
      54    C16     16.268941   21.877466   21.837164 C.3        1 MOL1         0.1018
      55    H26     15.385854   22.262052   22.364206 H          1 MOL1         0.0783
      56    C17     16.786777   22.941755   20.828481 C.3        1 MOL1         0.1043
      57    H27     17.498969   22.449684   20.153993 H          1 MOL1         0.0783
      58    O14     17.462920   24.021821   21.521559 O.3        1 MOL1        -0.3740
      59    C18     15.667487   23.545861   19.947079 C.3        1 MOL1         0.0138
      60    H28     15.323492   22.773462   19.245808 H          1 MOL1         0.0794
      61    H29     16.094397   24.362470   19.349632 H          1 MOL1         0.0794
      62    O15     14.561586   24.021920   20.724920 O.3        1 MOL1        -0.5486
      63    H30     13.928825   24.453267   20.110035 H          1 MOL1         0.3769
      64    C19     23.561755   22.674551   20.686267 C.3        1 MOL1         0.2972
      65    H31     24.585814   22.848978   20.332187 H          1 MOL1         0.0751
      66    O16     23.389020   21.328115   21.176303 O.3        1 MOL1        -0.3740
      67    C20     23.215568   23.647617   21.838019 C.3        1 MOL1         0.1003
      68    H32     23.326907   24.665399   21.441924 H          1 MOL1         0.0783
      69    O17     24.120207   23.475639   22.941760 O.3        1 MOL1        -0.5519
      70    H33     24.241866   22.501571   23.075849 H          1 MOL1         0.3769
      71    C21     21.745501   23.485630   22.306712 C.3        1 MOL1         0.1053
      72    H34     21.651434   22.522627   22.828134 H          1 MOL1         0.0783
      73    O18     21.460722   24.563184   23.204907 O.3        1 MOL1        -0.5519
      74    H35     22.177060   24.533507   23.876106 H          1 MOL1         0.3769
      75    C22     20.742646   23.490438   21.113813 C.3        1 MOL1         0.1018
      76    H36     20.582807   24.523578   20.781518 H          1 MOL1         0.0783
      77    C23     21.240931   22.630633   19.919937 C.3        1 MOL1         0.1043
      78    H37     21.158835   21.580281   20.213795 H          1 MOL1         0.0783
      79    O19     22.624687   22.920092   19.617990 O.3        1 MOL1        -0.3740
      80    C24     20.402531   22.803750   18.629152 C.3        1 MOL1         0.0138
      81    H38     19.434641   22.305625   18.770911 H          1 MOL1         0.0794
      82    H39     20.914557   22.282405   17.809694 H          1 MOL1         0.0794
      83    O20     20.192786   24.178595   18.283587 O.3        1 MOL1        -0.5486
      84    H40     19.570537   24.555625   18.941480 H          1 MOL1         0.3769
      85    C25     25.183472   17.605067   21.313849 C.3        1 MOL1         0.2972
      86    H41     25.840183   16.727714   21.269416 H          1 MOL1         0.0751
      87    O21     23.797049   17.223030   21.456551 O.3        1 MOL1        -0.3740
      88    C26     25.598702   18.558083   22.465247 C.3        1 MOL1         0.1003
      89    H42     26.602198   18.932486   22.223987 H          1 MOL1         0.0783
      90    O22     25.657747   17.880683   23.728314 O.3        1 MOL1        -0.5519
      91    H43     24.741741   17.563195   23.930487 H          1 MOL1         0.3769
      92    C27     24.644805   19.776705   22.523280 C.3        1 MOL1         0.1053
      93    H44     23.645171   19.416960   22.795145 H          1 MOL1         0.0783
      94    O23     25.109359   20.702937   23.510898 O.3        1 MOL1        -0.5519
      95    H45     25.328088   20.153456   24.296084 H          1 MOL1         0.3769
      96    C28     24.559526   20.483326   21.145421 C.3        1 MOL1         0.1018
      97    H46     25.480437   21.065924   21.011910 H          1 MOL1         0.0783
      98    C29     24.395170   19.489567   19.958238 C.3        1 MOL1         0.1043
      99    H47     23.368512   19.108588   19.970968 H          1 MOL1         0.0783
     100    O24     25.305478   18.368068   20.095353 O.3        1 MOL1        -0.3740
     101    C30     24.623898   20.141359   18.573613 C.3        1 MOL1         0.0138
     102    H48     23.783952   20.817181   18.363953 H          1 MOL1         0.0794
     103    H49     24.606155   19.353601   17.808699 H          1 MOL1         0.0794
     104    O25     25.858947   20.866796   18.513972 O.3        1 MOL1        -0.5486
     105    H50     25.957352   21.210987   17.599566 H          1 MOL1         0.3769
     106    C31     21.101836   14.261129   22.457349 C.3        1 MOL1         0.2972
     107    H51     20.572174   13.362074   22.796087 H          1 MOL1         0.0751
     108    O26     20.224636   15.152988   21.738457 O.3        1 MOL1        -0.3740
     109    C32     21.697898   15.013464   23.673246 C.3        1 MOL1         0.1003
     110    H52     22.444037   14.353092   24.133297 H          1 MOL1         0.0783
     111    O27     20.674046   15.296944   24.641061 O.3        1 MOL1        -0.5519
     112    H53     20.662031   16.275201   24.798892 H          1 MOL1         0.3769
     113    C33     22.426546   16.294948   23.198703 C.3        1 MOL1         0.1053
     114    H54     21.687311   16.945010   22.726360 H          1 MOL1         0.0783
     115    O28     23.020078   16.973975   24.311372 O.3        1 MOL1        -0.5519
     116    H55     22.272756   17.438383   24.773980 H          1 MOL1         0.3769
     117    C34     23.492842   15.975761   22.119698 C.3        1 MOL1         0.1018
     118    H56     24.372917   15.536007   22.605769 H          1 MOL1         0.0783
     119    C35     22.942356   15.024604   21.015839 C.3        1 MOL1         0.1043
     120    H57     22.263781   15.616170   20.390159 H          1 MOL1         0.0783
     121    O29     22.199692   13.913153   21.584483 O.3        1 MOL1        -0.3740
     122    C36     24.038759   14.455295   20.083276 C.3        1 MOL1         0.0138
     123    H58     24.489482   15.283812   19.520076 H          1 MOL1         0.0794
     124    H59     23.560309   13.791465   19.350960 H          1 MOL1         0.0794
     125    O30     25.052222   13.738360   20.800640 O.3        1 MOL1        -0.5486
     126    H60     25.563262   14.378636   21.336859 H          1 MOL1         0.3769
     127    C1      19.691740   18.743947   24.503874 C.2        1 MOL1         0.6115
     128    O1      20.541924   18.079117   25.068057 O.co2      1 MOL1        -0.6776
     129    O2      19.024652   19.610759   25.037944 O.co2      1 MOL1        -0.6776
     130    C2      19.480186   18.504704   23.014981 C.3        1 MOL1        -0.2013
     131    H1      18.447118   18.760665   22.767113 H          1 MOL1         0.0727
     132    H2      19.573718   17.431512   22.829483 H          1 MOL1         0.0727
     133    C3      20.481747   19.306492   22.141163 C.3        1 MOL1        -0.1910
     134    H3      20.316037   20.382362   22.277690 H          1 MOL1         0.0729
     135    H4      21.498264   19.119216   22.502418 H          1 MOL1         0.0729
     136    C4      20.414883   18.943889   20.641824 C.3        1 MOL1        -0.1909
     137    H5      20.570349   17.865827   20.518161 H          1 MOL1         0.0729
     138    H6      21.243874   19.431790   20.120693 H          1 MOL1         0.0729
     139    C5      19.089001   19.378600   19.987912 C.3        1 MOL1        -0.1884
     140    H7      18.264097   18.816493   20.438820 H          1 MOL1         0.0729
     141    H8      18.902747   20.437835   20.202489 H          1 MOL1         0.0729
     142    C6      19.097484   19.166450   18.461082 C.3        1 MOL1        -0.2899
     143    H9      19.926285   19.712867   17.993446 H          1 MOL1         0.0741
     144    H10     19.203826   18.105054   18.211078 H          1 MOL1         0.0741
     145    H11     18.161801   19.526954   18.015670 H          1 MOL1         0.0741
@<TRIPOS>BOND
    1     1     2    1
    2     1     3    1
    3     1     4    1
    4     4     5    1
    5     4     6    1
    6     6     7    1
    7     4     8    1
    8     8     9    1
    9     8    10    1
   10    10    11    1
   11     8    12    1
   12    12    13    1
   13    12    14    1
   14    14    15    1
   15     1    16    1
   16    14    16    1
   17    14    17    1
   18    17    18    1
   19    17    19    1
   20    17    20    1
   21    20    21    1
   22    22    23    1
   23    22    24    1
   24    22    25    1
   25    25    26    1
   26    25    27    1
   27    27    28    1
   28    25    29    1
   29    29    30    1
   30    29    31    1
   31    31    32    1
   32     3    33    1
   33    29    33    1
   34    33    34    1
   35    33    35    1
   36    35    36    1
   37    22    37    1
   38    35    37    1
   39    35    38    1
   40    38    39    1
   41    38    40    1
   42    38    41    1
   43    41    42    1
   44    43    44    1
   45    43    45    1
   46    43    46    1
   47    46    47    1
   48    46    48    1
   49    48    49    1
   50    46    50    1
   51    50    51    1
   52    50    52    1
   53    52    53    1
   54    24    54    1
   55    50    54    1
   56    54    55    1
   57    54    56    1
   58    56    57    1
   59    43    58    1
   60    56    58    1
   61    56    59    1
   62    59    60    1
   63    59    61    1
   64    59    62    1
   65    62    63    1
   66    64    65    1
   67    64    66    1
   68    64    67    1
   69    67    68    1
   70    67    69    1
   71    69    70    1
   72    67    71    1
   73    71    72    1
   74    71    73    1
   75    73    74    1
   76    45    75    1
   77    71    75    1
   78    75    76    1
   79    75    77    1
   80    77    78    1
   81    64    79    1
   82    77    79    1
   83    77    80    1
   84    80    81    1
   85    80    82    1
   86    80    83    1
   87    83    84    1
   88    85    86    1
   89    85    87    1
   90    85    88    1
   91    88    89    1
   92    88    90    1
   93    90    91    1
   94    88    92    1
   95    92    93    1
   96    92    94    1
   97    94    95    1
   98    66    96    1
   99    92    96    1
  100    96    97    1
  101    96    98    1
  102    98    99    1
  103    85   100    1
  104    98   100    1
  105    98   101    1
  106   101   102    1
  107   101   103    1
  108   101   104    1
  109   104   105    1
  110   106   107    1
  111    12   108    1
  112   106   108    1
  113   106   109    1
  114   109   110    1
  115   109   111    1
  116   111   112    1
  117   109   113    1
  118   113   114    1
  119   113   115    1
  120   115   116    1
  121    87   117    1
  122   113   117    1
  123   117   118    1
  124   117   119    1
  125   119   120    1
  126   106   121    1
  127   119   121    1
  128   119   122    1
  129   122   123    1
  130   122   124    1
  131   122   125    1
  132   125   126    1
  133   127   128    1
  134   127   129    2
  135   127   130    1
  136   130   131    1
  137   130   132    1
  138   130   133    1
  139   133   134    1
  140   133   135    1
  141   133   136    1
  142   136   137    1
  143   136   138    1
  144   136   139    1
  145   139   140    1
  146   139   141    1
  147   139   142    1
  148   142   143    1
  149   142   144    1
  150   142   145    1
@<TRIPOS>SUBSTRUCTURE
       1 MOL1            1 RESIDUE      1      MOL     
       2 MOL1          145 RESIDUE      1      MOL     
@<SCITEGIC>MOL_PROPERTY
feprocess Rank
SciTegic.value.IntegerValue
4

@<SCITEGIC>MOL_PROPERTY
Conf_Id
SciTegic.value.IntegerValue
988

@<SCITEGIC>MOL_PROPERTY
Probability
SciTegic.value.DoubleValue
3.91

@<SCITEGIC>MOL_PROPERTY
G
SciTegic.value.DoubleValue
499.040

@<SCITEGIC>MOL_PROPERTY
E
SciTegic.value.DoubleValue
308.832

@<SCITEGIC>MOL_PROPERTY
-TS
SciTegic.value.DoubleValue
190.208

@<SCITEGIC>MOL_PROPERTY
U+W
SciTegic.value.DoubleValue
180.955

@<SCITEGIC>MOL_PROPERTY
U
SciTegic.value.DoubleValue
252.811

@<SCITEGIC>MOL_PROPERTY
W
SciTegic.value.DoubleValue
-71.853

@<SCITEGIC>MOL_PROPERTY
W(PB)
SciTegic.value.DoubleValue
-77.836

@<SCITEGIC>MOL_PROPERTY
W(SA)
SciTegic.value.DoubleValue
5.983

@<SCITEGIC>MOL_PROPERTY
Valence
SciTegic.value.DoubleValue
151.809

@<SCITEGIC>MOL_PROPERTY
Coulomb
SciTegic.value.DoubleValue
124.948

@<SCITEGIC>MOL_PROPERTY
VdW
SciTegic.value.DoubleValue
-23.946

@<SCITEGIC>MOL_PROPERTY
VdW6
SciTegic.value.DoubleValue
-189.123

@<SCITEGIC>MOL_PROPERTY
VdW12
SciTegic.value.DoubleValue
165.177

@<SCITEGIC>MOL_PROPERTY
Bond
SciTegic.value.DoubleValue
5.430

@<SCITEGIC>MOL_PROPERTY
Angle
SciTegic.value.DoubleValue
15.396

@<SCITEGIC>MOL_PROPERTY
Pdih
SciTegic.value.DoubleValue
130.980

@<SCITEGIC>MOL_PROPERTY
Idih
SciTegic.value.DoubleValue
0.003

@<SCITEGIC>MOL_PROPERTY
Tether
SciTegic.value.DoubleValue
0.000

@<TRIPOS>MOLECULE
CD_guest-7_fast_vm2_rndm.mol2 : feprocess host+ligand conformer 5
         145         150           2
SMALL
USER_CHARGES
 
@<TRIPOS>ATOM
       1    C1      16.354862   15.268491   20.549811 C.3        1 MOL1         0.2972
       2    H1      15.316828   15.157082   20.211543 H          1 MOL1         0.0751
       3    O1      16.667845   16.651709   20.824732 O.3        1 MOL1        -0.3740
       4    C2      16.635824   14.383750   21.798379 C.3        1 MOL1         0.1003
       5    H2      16.490337   13.341500   21.485843 H          1 MOL1         0.0783
       6    O2      15.738195   14.659872   22.883062 O.3        1 MOL1        -0.5519
       7    H3      15.943856   15.578004   23.193625 H          1 MOL1         0.3769
       8    C3      18.108366   14.535335   22.251701 C.3        1 MOL1         0.1053
       9    H4      18.264375   15.569114   22.590099 H          1 MOL1         0.0783
      10    O3      18.379246   13.625765   23.323419 O.3        1 MOL1        -0.5519
      11    H5      17.610814   13.708836   23.931075 H          1 MOL1         0.3769
      12    C4      19.071305   14.257174   21.072234 C.3        1 MOL1         0.1018
      13    H6      19.065192   13.179789   20.862329 H          1 MOL1         0.0783
      14    C5      18.671651   15.032682   19.787704 C.3        1 MOL1         0.1043
      15    H7      18.849835   16.099179   19.967757 H          1 MOL1         0.0783
      16    O4      17.261951   14.822041   19.515145 O.3        1 MOL1        -0.3740
      17    C6      19.491975   14.648411   18.528684 C.3        1 MOL1         0.0138
      18    H8      20.411683   15.245576   18.516548 H          1 MOL1         0.0794
      19    H9      18.916757   14.932210   17.637394 H          1 MOL1         0.0794
      20    O5      19.833330   13.258011   18.476131 O.3        1 MOL1        -0.5486
      21    H10     20.597228   13.128005   19.082130 H          1 MOL1         0.3769
      22    C7      15.065039   20.330463   21.893233 C.3        1 MOL1         0.2972
      23    H11     14.433726   21.157963   22.240849 H          1 MOL1         0.0751
      24    O6      16.273974   20.811260   21.274866 O.3        1 MOL1        -0.3740
      25    C8      15.420465   19.401956   23.082615 C.3        1 MOL1         0.1003
      26    H12     14.473021   18.990558   23.453201 H          1 MOL1         0.0783
      27    O7      16.042365   20.133019   24.152022 O.3        1 MOL1        -0.5519
      28    H13     17.010421   20.234957   23.945402 H          1 MOL1         0.3769
      29    C9      16.291796   18.211967   22.613006 C.3        1 MOL1         0.1053
      30    H14     17.258985   18.606839   22.276716 H          1 MOL1         0.0783
      31    O8      16.485447   17.296143   23.696864 O.3        1 MOL1        -0.5519
      32    H15     17.185398   17.714302   24.269323 H          1 MOL1         0.3769
      33    C10     15.638253   17.472729   21.417467 C.3        1 MOL1         0.1018
      34    H16     14.796252   16.874309   21.788687 H          1 MOL1         0.0783
      35    C11     15.137838   18.453312   20.318996 C.3        1 MOL1         0.1043
      36    H17     16.018939   18.873502   19.817401 H          1 MOL1         0.0783
      37    O9      14.366920   19.532138   20.912083 O.3        1 MOL1        -0.3740
      38    C12     14.274221   17.772745   19.230339 C.3        1 MOL1         0.0138
      39    H18     14.926776   17.136576   18.617135 H          1 MOL1         0.0794
      40    H19     13.864597   18.550404   18.571887 H          1 MOL1         0.0794
      41    O10     13.215939   16.985205   19.790783 O.3        1 MOL1        -0.5486
      42    H20     12.666374   16.652607   19.047963 H          1 MOL1         0.3769
      43    C13     18.448885   24.187704   20.546168 C.3        1 MOL1         0.2972
      44    H21     18.899843   25.145030   20.255347 H          1 MOL1         0.0751
      45    O11     19.455476   23.219747   20.909715 O.3        1 MOL1        -0.3740
      46    C14     17.431176   24.371925   21.701766 C.3        1 MOL1         0.1003
      47    H22     16.625718   25.008090   21.312301 H          1 MOL1         0.0783
      48    O12     18.017912   25.023433   22.838518 O.3        1 MOL1        -0.5519
      49    H23     18.687709   24.395323   23.209868 H          1 MOL1         0.3769
      50    C15     16.799955   23.017393   22.111775 C.3        1 MOL1         0.1053
      51    H24     17.569664   22.417728   22.616726 H          1 MOL1         0.0783
      52    O13     15.714170   23.277968   23.007800 O.3        1 MOL1        -0.5519
      53    H25     16.098506   23.811365   23.736402 H          1 MOL1         0.3769
      54    C16     16.289589   22.200865   20.890701 C.3        1 MOL1         0.1018
      55    H26     15.287318   22.554538   20.619225 H          1 MOL1         0.0783
      56    C17     17.216084   22.285206   19.644364 C.3        1 MOL1         0.1043
      57    H27     18.075622   21.630789   19.823583 H          1 MOL1         0.0783
      58    O14     17.698775   23.637051   19.443776 O.3        1 MOL1        -0.3740
      59    C18     16.551213   21.788074   18.337021 C.3        1 MOL1         0.0138
      60    H28     16.442932   20.697004   18.393466 H          1 MOL1         0.0794
      61    H29     17.230309   22.001376   17.500946 H          1 MOL1         0.0794
      62    O15     15.272949   22.389848   18.096723 O.3        1 MOL1        -0.5486
      63    H30     14.632021   21.982045   18.717680 H          1 MOL1         0.3769
      64    C19     23.304223   22.598226   22.223156 C.3        1 MOL1         0.2972
      65    H31     24.327288   22.658888   22.615729 H          1 MOL1         0.0751
      66    O16     23.040070   21.315227   21.621224 O.3        1 MOL1        -0.3740
      67    C20     22.279232   22.816770   23.363012 C.3        1 MOL1         0.1003
      68    H32     22.439233   23.825754   23.763831 H          1 MOL1         0.0783
      69    O17     22.490968   21.853910   24.410004 O.3        1 MOL1        -0.5519
      70    H33     23.288837   21.328025   24.163937 H          1 MOL1         0.3769
      71    C21     20.834747   22.745181   22.804233 C.3        1 MOL1         0.1053
      72    H34     20.658166   21.722894   22.451908 H          1 MOL1         0.0783
      73    O18     19.880418   23.059530   23.824184 O.3        1 MOL1        -0.5519
      74    H35     19.520152   22.173692   24.101649 H          1 MOL1         0.3769
      75    C22     20.639325   23.684821   21.586941 C.3        1 MOL1         0.1018
      76    H36     20.538739   24.718580   21.942144 H          1 MOL1         0.0783
      77    C23     21.800581   23.580129   20.557553 C.3        1 MOL1         0.1043
      78    H37     21.697902   22.620382   20.034994 H          1 MOL1         0.0783
      79    O19     23.087526   23.616937   21.224787 O.3        1 MOL1        -0.3740
      80    C24     21.772251   24.690041   19.479854 C.3        1 MOL1         0.0138
      81    H38     20.919309   24.504915   18.812978 H          1 MOL1         0.0794
      82    H39     22.683854   24.611803   18.872399 H          1 MOL1         0.0794
      83    O20     21.665465   25.999299   20.052959 O.3        1 MOL1        -0.5486
      84    H40     21.730327   26.651188   19.321250 H          1 MOL1         0.3769
      85    C25     24.958150   17.649168   21.062636 C.3        1 MOL1         0.2972
      86    H41     25.668223   16.855167   20.797712 H          1 MOL1         0.0751
      87    O21     23.659455   17.117946   21.388312 O.3        1 MOL1        -0.3740
      88    C26     25.460054   18.468346   22.281037 C.3        1 MOL1         0.1003
      89    H42     26.411553   18.932495   21.990602 H          1 MOL1         0.0783
      90    O22     25.683051   17.629940   23.425239 O.3        1 MOL1        -0.5519
      91    H43     24.865246   17.086426   23.559699 H          1 MOL1         0.3769
      92    C27     24.462411   19.604304   22.622812 C.3        1 MOL1         0.1053
      93    H44     23.518537   19.146988   22.949092 H          1 MOL1         0.0783
      94    O23     25.005844   20.402677   23.679287 O.3        1 MOL1        -0.5519
      95    H45     25.406434   19.756099   24.303965 H          1 MOL1         0.3769
      96    C28     24.177339   20.472229   21.367715 C.3        1 MOL1         0.1018
      97    H46     25.070316   21.065142   21.131781 H          1 MOL1         0.0783
      98    C29     23.804251   19.600911   20.138689 C.3        1 MOL1         0.1043
      99    H47     22.829564   19.133560   20.330587 H          1 MOL1         0.0783
     100    O24     24.802368   18.566447   19.956595 O.3        1 MOL1        -0.3740
     101    C30     23.667312   20.407755   18.822561 C.3        1 MOL1         0.0138
     102    H48     22.683528   20.895121   18.817736 H          1 MOL1         0.0794
     103    H49     23.682181   19.705473   17.978601 H          1 MOL1         0.0794
     104    O25     24.691595   21.396981   18.661310 O.3        1 MOL1        -0.5486
     105    H50     24.514632   22.107429   19.315916 H          1 MOL1         0.3769
     106    C31     21.378916   13.720547   21.681777 C.3        1 MOL1         0.2972
     107    H51     20.946948   12.714783   21.761740 H          1 MOL1         0.0751
     108    O26     20.369452   14.725803   21.471142 O.3        1 MOL1        -0.3740
     109    C32     22.140285   14.076311   22.979744 C.3        1 MOL1         0.1003
     110    H52     22.977300   13.373034   23.079480 H          1 MOL1         0.0783
     111    O27     21.280308   13.956148   24.124094 O.3        1 MOL1        -0.5519
     112    H53     20.353571   14.097292   23.806960 H          1 MOL1         0.3769
     113    C33     22.721603   15.504789   22.884066 C.3        1 MOL1         0.1053
     114    H54     21.879876   16.207006   22.852994 H          1 MOL1         0.0783
     115    O28     23.523406   15.767082   24.039434 O.3        1 MOL1        -0.5519
     116    H55     22.981296   15.450795   24.796712 H          1 MOL1         0.3769
     117    C34     23.560376   15.695762   21.594338 C.3        1 MOL1         0.1018
     118    H56     24.542963   15.229244   21.744367 H          1 MOL1         0.0783
     119    C35     22.872246   15.109247   20.326557 C.3        1 MOL1         0.1043
     120    H57     22.055540   15.787216   20.052816 H          1 MOL1         0.0783
     121    O29     22.316771   13.793088   20.588110 O.3        1 MOL1        -0.3740
     122    C36     23.812763   15.014673   19.102038 C.3        1 MOL1         0.0138
     123    H58     24.026836   16.032500   18.748421 H          1 MOL1         0.0794
     124    H59     23.284058   14.492742   18.293201 H          1 MOL1         0.0794
     125    O30     25.038251   14.340384   19.413995 O.3        1 MOL1        -0.5486
     126    H60     25.553258   14.258375   18.581857 H          1 MOL1         0.3769
     127    C1      19.300573   19.312439   24.004559 C.2        1 MOL1         0.6115
     128    O1      18.779004   18.479076   24.719486 O.co2      1 MOL1        -0.6776
     129    O2      18.854522   20.436434   23.863695 O.co2      1 MOL1        -0.6776
     130    C2      20.513877   18.882389   23.181331 C.3        1 MOL1        -0.2013
     131    H1      21.019228   18.094188   23.749711 H          1 MOL1         0.0727
     132    H2      21.216195   19.718204   23.127303 H          1 MOL1         0.0727
     133    C3      20.176954   18.358424   21.758342 C.3        1 MOL1        -0.1910
     134    H3      21.056360   17.842364   21.358967 H          1 MOL1         0.0729
     135    H4      19.379177   17.608308   21.831205 H          1 MOL1         0.0729
     136    C4      19.759729   19.484511   20.781673 C.3        1 MOL1        -0.1909
     137    H5      20.592270   20.186261   20.645441 H          1 MOL1         0.0729
     138    H6      18.944031   20.060330   21.236393 H          1 MOL1         0.0729
     139    C5      19.285964   18.966418   19.403146 C.3        1 MOL1        -0.1884
     140    H7      18.448756   18.271599   19.542012 H          1 MOL1         0.0729
     141    H8      18.891520   19.806613   18.819552 H          1 MOL1         0.0729
     142    C6      20.401558   18.290874   18.579563 C.3        1 MOL1        -0.2899
     143    H9      20.841291   17.446259   19.118060 H          1 MOL1         0.0741
     144    H10     20.003012   17.915899   17.628417 H          1 MOL1         0.0741
     145    H11     21.200642   19.004112   18.350486 H          1 MOL1         0.0741
@<TRIPOS>BOND
    1     1     2    1
    2     1     3    1
    3     1     4    1
    4     4     5    1
    5     4     6    1
    6     6     7    1
    7     4     8    1
    8     8     9    1
    9     8    10    1
   10    10    11    1
   11     8    12    1
   12    12    13    1
   13    12    14    1
   14    14    15    1
   15     1    16    1
   16    14    16    1
   17    14    17    1
   18    17    18    1
   19    17    19    1
   20    17    20    1
   21    20    21    1
   22    22    23    1
   23    22    24    1
   24    22    25    1
   25    25    26    1
   26    25    27    1
   27    27    28    1
   28    25    29    1
   29    29    30    1
   30    29    31    1
   31    31    32    1
   32     3    33    1
   33    29    33    1
   34    33    34    1
   35    33    35    1
   36    35    36    1
   37    22    37    1
   38    35    37    1
   39    35    38    1
   40    38    39    1
   41    38    40    1
   42    38    41    1
   43    41    42    1
   44    43    44    1
   45    43    45    1
   46    43    46    1
   47    46    47    1
   48    46    48    1
   49    48    49    1
   50    46    50    1
   51    50    51    1
   52    50    52    1
   53    52    53    1
   54    24    54    1
   55    50    54    1
   56    54    55    1
   57    54    56    1
   58    56    57    1
   59    43    58    1
   60    56    58    1
   61    56    59    1
   62    59    60    1
   63    59    61    1
   64    59    62    1
   65    62    63    1
   66    64    65    1
   67    64    66    1
   68    64    67    1
   69    67    68    1
   70    67    69    1
   71    69    70    1
   72    67    71    1
   73    71    72    1
   74    71    73    1
   75    73    74    1
   76    45    75    1
   77    71    75    1
   78    75    76    1
   79    75    77    1
   80    77    78    1
   81    64    79    1
   82    77    79    1
   83    77    80    1
   84    80    81    1
   85    80    82    1
   86    80    83    1
   87    83    84    1
   88    85    86    1
   89    85    87    1
   90    85    88    1
   91    88    89    1
   92    88    90    1
   93    90    91    1
   94    88    92    1
   95    92    93    1
   96    92    94    1
   97    94    95    1
   98    66    96    1
   99    92    96    1
  100    96    97    1
  101    96    98    1
  102    98    99    1
  103    85   100    1
  104    98   100    1
  105    98   101    1
  106   101   102    1
  107   101   103    1
  108   101   104    1
  109   104   105    1
  110   106   107    1
  111    12   108    1
  112   106   108    1
  113   106   109    1
  114   109   110    1
  115   109   111    1
  116   111   112    1
  117   109   113    1
  118   113   114    1
  119   113   115    1
  120   115   116    1
  121    87   117    1
  122   113   117    1
  123   117   118    1
  124   117   119    1
  125   119   120    1
  126   106   121    1
  127   119   121    1
  128   119   122    1
  129   122   123    1
  130   122   124    1
  131   122   125    1
  132   125   126    1
  133   127   128    1
  134   127   129    2
  135   127   130    1
  136   130   131    1
  137   130   132    1
  138   130   133    1
  139   133   134    1
  140   133   135    1
  141   133   136    1
  142   136   137    1
  143   136   138    1
  144   136   139    1
  145   139   140    1
  146   139   141    1
  147   139   142    1
  148   142   143    1
  149   142   144    1
  150   142   145    1
@<TRIPOS>SUBSTRUCTURE
       1 MOL1            1 RESIDUE      1      MOL     
       2 MOL1          145 RESIDUE      1      MOL     
@<SCITEGIC>MOL_PROPERTY
feprocess Rank
SciTegic.value.IntegerValue
5

@<SCITEGIC>MOL_PROPERTY
Conf_Id
SciTegic.value.IntegerValue
256

@<SCITEGIC>MOL_PROPERTY
Probability
SciTegic.value.DoubleValue
2.15

@<SCITEGIC>MOL_PROPERTY
G
SciTegic.value.DoubleValue
499.396

@<SCITEGIC>MOL_PROPERTY
E
SciTegic.value.DoubleValue
310.063

@<SCITEGIC>MOL_PROPERTY
-TS
SciTegic.value.DoubleValue
189.333

@<SCITEGIC>MOL_PROPERTY
U+W
SciTegic.value.DoubleValue
182.187

@<SCITEGIC>MOL_PROPERTY
U
SciTegic.value.DoubleValue
256.103

@<SCITEGIC>MOL_PROPERTY
W
SciTegic.value.DoubleValue
-73.916

@<SCITEGIC>MOL_PROPERTY
W(PB)
SciTegic.value.DoubleValue
-79.896

@<SCITEGIC>MOL_PROPERTY
W(SA)
SciTegic.value.DoubleValue
5.980

@<SCITEGIC>MOL_PROPERTY
Valence
SciTegic.value.DoubleValue
153.147

@<SCITEGIC>MOL_PROPERTY
Coulomb
SciTegic.value.DoubleValue
129.427

@<SCITEGIC>MOL_PROPERTY
VdW
SciTegic.value.DoubleValue
-26.472

@<SCITEGIC>MOL_PROPERTY
VdW6
SciTegic.value.DoubleValue
-191.062

@<SCITEGIC>MOL_PROPERTY
VdW12
SciTegic.value.DoubleValue
164.590

@<SCITEGIC>MOL_PROPERTY
Bond
SciTegic.value.DoubleValue
5.225

@<SCITEGIC>MOL_PROPERTY
Angle
SciTegic.value.DoubleValue
15.281

@<SCITEGIC>MOL_PROPERTY
Pdih
SciTegic.value.DoubleValue
132.630

@<SCITEGIC>MOL_PROPERTY
Idih
SciTegic.value.DoubleValue
0.012

@<SCITEGIC>MOL_PROPERTY
Tether
SciTegic.value.DoubleValue
0.000

@<TRIPOS>MOLECULE
CD_guest-7_fast_vm2_rndm.mol2 : feprocess host+ligand conformer 6
         145         150           2
SMALL
USER_CHARGES
 
@<TRIPOS>ATOM
       1    C1      16.135248   15.098389   20.992636 C.3        1 MOL1         0.2972
       2    H1      15.085050   14.914900   20.731889 H          1 MOL1         0.0751
       3    O1      16.355671   16.462701   21.399776 O.3        1 MOL1        -0.3740
       4    C2      16.561126   14.198917   22.179592 C.3        1 MOL1         0.1003
       5    H2      16.398668   13.155404   21.880191 H          1 MOL1         0.0783
       6    O2      15.765620   14.492242   23.340405 O.3        1 MOL1        -0.5519
       7    H3      15.649270   15.474923   23.369291 H          1 MOL1         0.3769
       8    C3      18.066567   14.378583   22.498706 C.3        1 MOL1         0.1053
       9    H4      18.214061   15.391351   22.899239 H          1 MOL1         0.0783
      10    O3      18.466664   13.408243   23.473644 O.3        1 MOL1        -0.5519
      11    H5      17.782465   13.455240   24.177469 H          1 MOL1         0.3769
      12    C4      18.936975   14.232008   21.225773 C.3        1 MOL1         0.1018
      13    H6      18.937467   13.174009   20.932505 H          1 MOL1         0.0783
      14    C5      18.394596   15.102625   20.055578 C.3        1 MOL1         0.1043
      15    H7      18.502856   16.158943   20.327144 H          1 MOL1         0.0783
      16    O4      16.991998   14.803139   19.869428 O.3        1 MOL1        -0.3740
      17    C6      19.106498   14.915785   18.692841 C.3        1 MOL1         0.0138
      18    H8      19.999204   15.553003   18.674918 H          1 MOL1         0.0794
      19    H9      18.440989   15.283917   17.900778 H          1 MOL1         0.0794
      20    O5      19.474267   13.557197   18.430359 O.3        1 MOL1        -0.5486
      21    H10     20.424124   13.472617   18.666113 H          1 MOL1         0.3769
      22    C7      14.739741   20.260280   21.034648 C.3        1 MOL1         0.2972
      23    H11     14.097876   21.134303   20.871262 H          1 MOL1         0.0751
      24    O6      16.127475   20.638013   21.156445 O.3        1 MOL1        -0.3740
      25    C8      14.293852   19.472323   22.294465 C.3        1 MOL1         0.1003
      26    H12     13.275530   19.109466   22.103064 H          1 MOL1         0.0783
      27    O7      14.272290   20.302093   23.464649 O.3        1 MOL1        -0.5519
      28    H13     15.196198   20.630537   23.606462 H          1 MOL1         0.3769
      29    C9      15.202378   18.237497   22.503624 C.3        1 MOL1         0.1053
      30    H14     16.219045   18.589581   22.725384 H          1 MOL1         0.0783
      31    O8      14.709640   17.453457   23.596548 O.3        1 MOL1        -0.5519
      32    H15     14.519767   18.099988   24.311967 H          1 MOL1         0.3769
      33    C10     15.250388   17.367931   21.223111 C.3        1 MOL1         0.1018
      34    H16     14.293973   16.834941   21.142244 H          1 MOL1         0.0783
      35    C11     15.499403   18.203914   19.934054 C.3        1 MOL1         0.1043
      36    H17     16.544400   18.538252   19.940443 H          1 MOL1         0.0783
      37    O9      14.627048   19.361941   19.913338 O.3        1 MOL1        -0.3740
      38    C12     15.270264   17.418472   18.620185 C.3        1 MOL1         0.0138
      39    H18     16.101633   16.716651   18.480210 H          1 MOL1         0.0794
      40    H19     15.303035   18.125968   17.780904 H          1 MOL1         0.0794
      41    O10     14.024977   16.708044   18.622543 O.3        1 MOL1        -0.5486
      42    H20     13.934472   16.264885   17.751031 H          1 MOL1         0.3769
      43    C13     18.672101   23.872959   21.709017 C.3        1 MOL1         0.2972
      44    H21     19.113805   24.855761   21.916757 H          1 MOL1         0.0751
      45    O11     19.623746   22.980881   21.098240 O.3        1 MOL1        -0.3740
      46    C14     18.142940   23.231094   23.016813 C.3        1 MOL1         0.1003
      47    H22     17.376057   23.906906   23.417157 H          1 MOL1         0.0783
      48    O12     19.183150   23.075567   23.995020 O.3        1 MOL1        -0.5519
      49    H23     19.936346   23.648115   23.713569 H          1 MOL1         0.3769
      50    C15     17.475964   21.865985   22.730484 C.3        1 MOL1         0.1053
      51    H24     18.254960   21.167196   22.397165 H          1 MOL1         0.0783
      52    O13     16.877786   21.392242   23.939796 O.3        1 MOL1        -0.5519
      53    H25     17.574036   21.524249   24.622318 H          1 MOL1         0.3769
      54    C16     16.408774   21.977692   21.612189 C.3        1 MOL1         0.1018
      55    H26     15.518827   22.465259   22.030311 H          1 MOL1         0.0783
      56    C17     16.925941   22.776586   20.381887 C.3        1 MOL1         0.1043
      57    H27     17.668602   22.154554   19.864382 H          1 MOL1         0.0783
      58    O14     17.554052   24.011966   20.808109 O.3        1 MOL1        -0.3740
      59    C18     15.821573   23.123543   19.353563 C.3        1 MOL1         0.0138
      60    H28     15.439842   22.191097   18.915926 H          1 MOL1         0.0794
      61    H29     16.278921   23.697867   18.537050 H          1 MOL1         0.0794
      62    O15     14.744809   23.874170   19.931705 O.3        1 MOL1        -0.5486
      63    H30     14.283941   23.305536   20.581226 H          1 MOL1         0.3769
      64    C19     23.706966   22.650091   20.549399 C.3        1 MOL1         0.2972
      65    H31     24.765533   22.735212   20.272113 H          1 MOL1         0.0751
      66    O16     23.389574   21.333207   21.045798 O.3        1 MOL1        -0.3740
      67    C20     23.307277   23.713651   21.604876 C.3        1 MOL1         0.1003
      68    H32     23.410388   24.695193   21.123912 H          1 MOL1         0.0783
      69    O17     24.158970   23.681063   22.758975 O.3        1 MOL1        -0.5519
      70    H33     24.047892   22.789855   23.176728 H          1 MOL1         0.3769
      71    C21     21.821252   23.538757   22.005813 C.3        1 MOL1         0.1053
      72    H34     21.710944   22.568468   22.510443 H          1 MOL1         0.0783
      73    O18     21.459627   24.596257   22.901317 O.3        1 MOL1        -0.5519
      74    H35     22.241849   24.709062   23.488337 H          1 MOL1         0.3769
      75    C22     20.904102   23.542135   20.748935 C.3        1 MOL1         0.1018
      76    H36     20.801448   24.572138   20.384927 H          1 MOL1         0.0783
      77    C23     21.454618   22.649700   19.600463 C.3        1 MOL1         0.1043
      78    H37     21.313800   21.602089   19.890081 H          1 MOL1         0.0783
      79    O19     22.869831   22.892339   19.398435 O.3        1 MOL1        -0.3740
      80    C24     20.712825   22.838477   18.254377 C.3        1 MOL1         0.0138
      81    H38     19.716729   22.383457   18.339434 H          1 MOL1         0.0794
      82    H39     21.256060   22.283827   17.477921 H          1 MOL1         0.0794
      83    O20     20.585509   24.215272   17.877800 O.3        1 MOL1        -0.5486
      84    H40     19.895623   24.614363   18.450250 H          1 MOL1         0.3769
      85    C25     24.794903   17.774390   22.492734 C.3        1 MOL1         0.2972
      86    H41     25.348929   16.921660   22.904551 H          1 MOL1         0.0751
      87    O21     23.500209   17.372591   21.998739 O.3        1 MOL1        -0.3740
      88    C26     24.610854   18.855888   23.586341 C.3        1 MOL1         0.1003
      89    H42     25.610146   19.214810   23.864184 H          1 MOL1         0.0783
      90    O22     23.985239   18.280002   24.744347 O.3        1 MOL1        -0.5519
      91    H43     23.402761   18.964104   25.161488 H          1 MOL1         0.3769
      92    C27     23.815626   20.062939   23.029723 C.3        1 MOL1         0.1053
      93    H44     22.790998   19.731326   22.820323 H          1 MOL1         0.0783
      94    O23     23.796161   21.126980   23.989925 O.3        1 MOL1        -0.5519
      95    H45     23.184976   20.844041   24.720092 H          1 MOL1         0.3769
      96    C28     24.431872   20.589799   21.705942 C.3        1 MOL1         0.1018
      97    H46     25.301675   21.216501   21.943397 H          1 MOL1         0.0783
      98    C29     24.838652   19.460393   20.717395 C.3        1 MOL1         0.1043
      99    H47     23.914391   19.075997   20.273368 H          1 MOL1         0.0783
     100    O24     25.518759   18.373757   21.396771 O.3        1 MOL1        -0.3740
     101    C30     25.729995   19.950335   19.551327 C.3        1 MOL1         0.0138
     102    H48     25.120457   20.578717   18.887852 H          1 MOL1         0.0794
     103    H49     26.054537   19.079141   18.966548 H          1 MOL1         0.0794
     104    O25     26.865704   20.691274   20.014223 O.3        1 MOL1        -0.5486
     105    H50     27.422636   20.902410   19.233296 H          1 MOL1         0.3769
     106    C31     21.364530   13.919151   21.100271 C.3        1 MOL1         0.2972
     107    H51     21.048093   12.928785   20.749608 H          1 MOL1         0.0751
     108    O26     20.251793   14.685677   21.598166 O.3        1 MOL1        -0.3740
     109    C32     22.368734   13.763261   22.265569 C.3        1 MOL1         0.1003
     110    H52     23.212365   13.167391   21.893629 H          1 MOL1         0.0783
     111    O27     21.744940   13.074002   23.361646 O.3        1 MOL1        -0.5519
     112    H53     20.817979   13.413679   23.416256 H          1 MOL1         0.3769
     113    C33     22.922049   15.132324   22.735000 C.3        1 MOL1         0.1053
     114    H54     22.118703   15.669582   23.258101 H          1 MOL1         0.0783
     115    O28     24.012465   14.885885   23.628584 O.3        1 MOL1        -0.5519
     116    H55     23.656091   14.276752   24.311150 H          1 MOL1         0.3769
     117    C34     23.389088   16.010995   21.541877 C.3        1 MOL1         0.1018
     118    H56     24.350255   15.628101   21.175387 H          1 MOL1         0.0783
     119    C35     22.362825   16.018742   20.375227 C.3        1 MOL1         0.1043
     120    H57     21.466288   16.554246   20.711595 H          1 MOL1         0.0783
     121    O29     22.007560   14.656050   20.039656 O.3        1 MOL1        -0.3740
     122    C36     22.854041   16.735861   19.091176 C.3        1 MOL1         0.0138
     123    H58     22.592682   17.798710   19.168890 H          1 MOL1         0.0794
     124    H59     22.298373   16.339249   18.231332 H          1 MOL1         0.0794
     125    O30     24.263926   16.596276   18.871001 O.3        1 MOL1        -0.5486
     126    H60     24.723196   17.019180   19.630971 H          1 MOL1         0.3769
     127    C1      20.862940   19.700866   25.744536 C.2        1 MOL1         0.6115
     128    O1      20.196512   19.367672   26.704416 O.co2      1 MOL1        -0.6776
     129    O2      22.041605   19.997774   25.807779 O.co2      1 MOL1        -0.6776
     130    C2      20.195558   19.724003   24.374079 C.3        1 MOL1        -0.2013
     131    H1      20.667982   20.516807   23.784485 H          1 MOL1         0.0727
     132    H2      19.148984   20.008756   24.518492 H          1 MOL1         0.0727
     133    C3      20.270987   18.362032   23.636889 C.3        1 MOL1        -0.1910
     134    H3      21.318875   18.054700   23.528058 H          1 MOL1         0.0729
     135    H4      19.792021   17.598312   24.264540 H          1 MOL1         0.0729
     136    C4      19.580700   18.372093   22.253423 C.3        1 MOL1        -0.1909
     137    H5      18.542454   18.711899   22.360226 H          1 MOL1         0.0729
     138    H6      19.533853   17.339546   21.892138 H          1 MOL1         0.0729
     139    C5      20.311752   19.239672   21.204780 C.3        1 MOL1        -0.1884
     140    H7      20.332554   20.285750   21.533606 H          1 MOL1         0.0729
     141    H8      21.356195   18.915475   21.118852 H          1 MOL1         0.0729
     142    C6      19.631555   19.155714   19.823568 C.3        1 MOL1        -0.2899
     143    H9      20.194588   19.727740   19.076493 H          1 MOL1         0.0741
     144    H10     19.570865   18.117570   19.475883 H          1 MOL1         0.0741
     145    H11     18.615417   19.566793   19.869052 H          1 MOL1         0.0741
@<TRIPOS>BOND
    1     1     2    1
    2     1     3    1
    3     1     4    1
    4     4     5    1
    5     4     6    1
    6     6     7    1
    7     4     8    1
    8     8     9    1
    9     8    10    1
   10    10    11    1
   11     8    12    1
   12    12    13    1
   13    12    14    1
   14    14    15    1
   15     1    16    1
   16    14    16    1
   17    14    17    1
   18    17    18    1
   19    17    19    1
   20    17    20    1
   21    20    21    1
   22    22    23    1
   23    22    24    1
   24    22    25    1
   25    25    26    1
   26    25    27    1
   27    27    28    1
   28    25    29    1
   29    29    30    1
   30    29    31    1
   31    31    32    1
   32     3    33    1
   33    29    33    1
   34    33    34    1
   35    33    35    1
   36    35    36    1
   37    22    37    1
   38    35    37    1
   39    35    38    1
   40    38    39    1
   41    38    40    1
   42    38    41    1
   43    41    42    1
   44    43    44    1
   45    43    45    1
   46    43    46    1
   47    46    47    1
   48    46    48    1
   49    48    49    1
   50    46    50    1
   51    50    51    1
   52    50    52    1
   53    52    53    1
   54    24    54    1
   55    50    54    1
   56    54    55    1
   57    54    56    1
   58    56    57    1
   59    43    58    1
   60    56    58    1
   61    56    59    1
   62    59    60    1
   63    59    61    1
   64    59    62    1
   65    62    63    1
   66    64    65    1
   67    64    66    1
   68    64    67    1
   69    67    68    1
   70    67    69    1
   71    69    70    1
   72    67    71    1
   73    71    72    1
   74    71    73    1
   75    73    74    1
   76    45    75    1
   77    71    75    1
   78    75    76    1
   79    75    77    1
   80    77    78    1
   81    64    79    1
   82    77    79    1
   83    77    80    1
   84    80    81    1
   85    80    82    1
   86    80    83    1
   87    83    84    1
   88    85    86    1
   89    85    87    1
   90    85    88    1
   91    88    89    1
   92    88    90    1
   93    90    91    1
   94    88    92    1
   95    92    93    1
   96    92    94    1
   97    94    95    1
   98    66    96    1
   99    92    96    1
  100    96    97    1
  101    96    98    1
  102    98    99    1
  103    85   100    1
  104    98   100    1
  105    98   101    1
  106   101   102    1
  107   101   103    1
  108   101   104    1
  109   104   105    1
  110   106   107    1
  111    12   108    1
  112   106   108    1
  113   106   109    1
  114   109   110    1
  115   109   111    1
  116   111   112    1
  117   109   113    1
  118   113   114    1
  119   113   115    1
  120   115   116    1
  121    87   117    1
  122   113   117    1
  123   117   118    1
  124   117   119    1
  125   119   120    1
  126   106   121    1
  127   119   121    1
  128   119   122    1
  129   122   123    1
  130   122   124    1
  131   122   125    1
  132   125   126    1
  133   127   128    1
  134   127   129    2
  135   127   130    1
  136   130   131    1
  137   130   132    1
  138   130   133    1
  139   133   134    1
  140   133   135    1
  141   133   136    1
  142   136   137    1
  143   136   138    1
  144   136   139    1
  145   139   140    1
  146   139   141    1
  147   139   142    1
  148   142   143    1
  149   142   144    1
  150   142   145    1
@<TRIPOS>SUBSTRUCTURE
       1 MOL1            1 RESIDUE      1      MOL     
       2 MOL1          145 RESIDUE      1      MOL     
@<SCITEGIC>MOL_PROPERTY
feprocess Rank
SciTegic.value.IntegerValue
6

@<SCITEGIC>MOL_PROPERTY
Conf_Id
SciTegic.value.IntegerValue
288

@<SCITEGIC>MOL_PROPERTY
Probability
SciTegic.value.DoubleValue
2.13

@<SCITEGIC>MOL_PROPERTY
G
SciTegic.value.DoubleValue
499.401

@<SCITEGIC>MOL_PROPERTY
E
SciTegic.value.DoubleValue
313.806

@<SCITEGIC>MOL_PROPERTY
-TS
SciTegic.value.DoubleValue
185.595

@<SCITEGIC>MOL_PROPERTY
U+W
SciTegic.value.DoubleValue
185.929

@<SCITEGIC>MOL_PROPERTY
U
SciTegic.value.DoubleValue
267.562

@<SCITEGIC>MOL_PROPERTY
W
SciTegic.value.DoubleValue
-81.634

@<SCITEGIC>MOL_PROPERTY
W(PB)
SciTegic.value.DoubleValue
-87.722

@<SCITEGIC>MOL_PROPERTY
W(SA)
SciTegic.value.DoubleValue
6.088

@<SCITEGIC>MOL_PROPERTY
Valence
SciTegic.value.DoubleValue
151.372

@<SCITEGIC>MOL_PROPERTY
Coulomb
SciTegic.value.DoubleValue
141.540

@<SCITEGIC>MOL_PROPERTY
VdW
SciTegic.value.DoubleValue
-25.350

@<SCITEGIC>MOL_PROPERTY
VdW6
SciTegic.value.DoubleValue
-181.482

@<SCITEGIC>MOL_PROPERTY
VdW12
SciTegic.value.DoubleValue
156.132

@<SCITEGIC>MOL_PROPERTY
Bond
SciTegic.value.DoubleValue
4.711

@<SCITEGIC>MOL_PROPERTY
Angle
SciTegic.value.DoubleValue
14.152

@<SCITEGIC>MOL_PROPERTY
Pdih
SciTegic.value.DoubleValue
132.508

@<SCITEGIC>MOL_PROPERTY
Idih
SciTegic.value.DoubleValue
0.001

@<SCITEGIC>MOL_PROPERTY
Tether
SciTegic.value.DoubleValue
0.000

@<TRIPOS>MOLECULE
CD_guest-7_fast_vm2_rndm.mol2 : feprocess host+ligand conformer 7
         145         150           2
SMALL
USER_CHARGES
 
@<TRIPOS>ATOM
       1    C1      16.392979   15.308627   21.716754 C.3        1 MOL1         0.2972
       2    H1      15.341147   15.168958   21.997617 H          1 MOL1         0.0751
       3    O1      16.651810   16.657880   21.282803 O.3        1 MOL1        -0.3740
       4    C2      17.314253   14.979786   22.917972 C.3        1 MOL1         0.1003
       5    H2      17.142793   13.926851   23.176925 H          1 MOL1         0.0783
       6    O2      17.010051   15.797545   24.059147 O.3        1 MOL1        -0.5519
       7    H3      16.220803   16.343257   23.823763 H          1 MOL1         0.3769
       8    C3      18.801479   15.140168   22.532117 C.3        1 MOL1         0.1053
       9    H4      18.991613   16.206010   22.346258 H          1 MOL1         0.0783
      10    O3      19.605721   14.685151   23.624918 O.3        1 MOL1        -0.5519
      11    H5      19.213293   15.121929   24.414312 H          1 MOL1         0.3769
      12    C4      19.144898   14.353234   21.240716 C.3        1 MOL1         0.1018
      13    H6      19.215835   13.284992   21.483042 H          1 MOL1         0.0783
      14    C5      18.093457   14.568585   20.114775 C.3        1 MOL1         0.1043
      15    H7      18.217176   15.588027   19.728914 H          1 MOL1         0.0783
      16    O4      16.747297   14.420482   20.635945 O.3        1 MOL1        -0.3740
      17    C6      18.265469   13.604586   18.916697 C.3        1 MOL1         0.0138
      18    H8      19.174089   13.889683   18.369319 H          1 MOL1         0.0794
      19    H9      17.416798   13.740967   18.233105 H          1 MOL1         0.0794
      20    O5      18.357468   12.235582   19.330868 O.3        1 MOL1        -0.5486
      21    H10     18.384335   11.680376   18.521209 H          1 MOL1         0.3769
      22    C7      14.699016   20.325239   21.035065 C.3        1 MOL1         0.2972
      23    H11     13.987020   21.139761   20.854191 H          1 MOL1         0.0751
      24    O6      15.994686   20.816102   21.422059 O.3        1 MOL1        -0.3740
      25    C8      14.194988   19.404294   22.173473 C.3        1 MOL1         0.1003
      26    H12     13.234160   18.981339   21.852416 H          1 MOL1         0.0783
      27    O7      14.000077   20.148891   23.386603 O.3        1 MOL1        -0.5519
      28    H13     14.775458   20.757483   23.487830 H          1 MOL1         0.3769
      29    C9      15.177914   18.230617   22.410004 C.3        1 MOL1         0.1053
      30    H14     16.114965   18.641692   22.810543 H          1 MOL1         0.0783
      31    O8      14.598165   17.329409   23.358898 O.3        1 MOL1        -0.5519
      32    H15     14.204479   17.909945   24.049434 H          1 MOL1         0.3769
      33    C10     15.497235   17.493903   21.080830 C.3        1 MOL1         0.1018
      34    H16     14.621675   16.904716   20.779575 H          1 MOL1         0.0783
      35    C11     15.861706   18.477496   19.935579 C.3        1 MOL1         0.1043
      36    H17     16.834592   18.930341   20.166760 H          1 MOL1         0.0783
      37    O9      14.858683   19.519425   19.848688 O.3        1 MOL1        -0.3740
      38    C12     15.995708   17.798583   18.549038 C.3        1 MOL1         0.0138
      39    H18     16.948825   17.255518   18.515702 H          1 MOL1         0.0794
      40    H19     16.044187   18.581636   17.780882 H          1 MOL1         0.0794
      41    O10     14.921347   16.894226   18.264704 O.3        1 MOL1        -0.5486
      42    H20     15.060485   16.093547   18.815493 H          1 MOL1         0.3769
      43    C13     18.428209   24.126613   21.642670 C.3        1 MOL1         0.2972
      44    H21     18.872230   25.129733   21.682029 H          1 MOL1         0.0751
      45    O11     19.437588   23.100018   21.632160 O.3        1 MOL1        -0.3740
      46    C14     17.532648   23.903293   22.883606 C.3        1 MOL1         0.1003
      47    H22     16.731673   24.653484   22.857449 H          1 MOL1         0.0783
      48    O12     18.300451   24.065777   24.086528 O.3        1 MOL1        -0.5519
      49    H23     19.238690   23.864288   23.851535 H          1 MOL1         0.3769
      50    C15     16.882314   22.502150   22.840476 C.3        1 MOL1         0.1053
      51    H24     17.679206   21.757347   22.958983 H          1 MOL1         0.0783
      52    O13     15.943058   22.375527   23.912883 O.3        1 MOL1        -0.5519
      53    H25     16.417559   22.712924   24.705200 H          1 MOL1         0.3769
      54    C16     16.174950   22.241078   21.488003 C.3        1 MOL1         0.1018
      55    H26     15.222127   22.785649   21.479934 H          1 MOL1         0.0783
      56    C17     17.043515   22.649966   20.264780 C.3        1 MOL1         0.1043
      57    H27     17.853415   21.915318   20.179594 H          1 MOL1         0.0783
      58    O14     17.616767   23.968709   20.460468 O.3        1 MOL1        -0.3740
      59    C18     16.283084   22.644840   18.916296 C.3        1 MOL1         0.0138
      60    H28     16.038490   21.608014   18.649486 H          1 MOL1         0.0794
      61    H29     16.958152   23.025550   18.138308 H          1 MOL1         0.0794
      62    O15     15.089723   23.437322   18.954540 O.3        1 MOL1        -0.5486
      63    H30     14.390526   22.910945   19.394080 H          1 MOL1         0.3769
      64    C19     23.481175   22.523341   20.798637 C.3        1 MOL1         0.2972
      65    H31     24.517171   22.621955   20.450227 H          1 MOL1         0.0751
      66    O16     23.204430   21.187234   21.260707 O.3        1 MOL1        -0.3740
      67    C20     23.168854   23.538240   21.933438 C.3        1 MOL1         0.1003
      68    H32     23.309086   24.542761   21.513603 H          1 MOL1         0.0783
      69    O17     24.050794   23.379273   23.054893 O.3        1 MOL1        -0.5519
      70    H33     23.910386   22.463458   23.406504 H          1 MOL1         0.3769
      71    C21     21.692212   23.414408   22.382893 C.3        1 MOL1         0.1053
      72    H34     21.558208   22.430530   22.851790 H          1 MOL1         0.0783
      73    O18     21.384738   24.446857   23.326031 O.3        1 MOL1        -0.5519
      74    H35     22.141338   24.455775   23.953443 H          1 MOL1         0.3769
      75    C22     20.736107   23.508889   21.168501 C.3        1 MOL1         0.1018
      76    H36     20.737863   24.544682   20.804348 H          1 MOL1         0.0783
      77    C23     21.162883   22.564128   20.011318 C.3        1 MOL1         0.1043
      78    H37     21.022208   21.528503   20.344253 H          1 MOL1         0.0783
      79    O19     22.564094   22.794240   19.714744 O.3        1 MOL1        -0.3740
      80    C24     20.350139   22.723980   18.700084 C.3        1 MOL1         0.0138
      81    H38     19.494276   22.039362   18.735528 H          1 MOL1         0.0794
      82    H39     20.977463   22.397452   17.860000 H          1 MOL1         0.0794
      83    O20     19.887220   24.061309   18.475795 O.3        1 MOL1        -0.5486
      84    H40     19.128463   24.210731   19.087298 H          1 MOL1         0.3769
      85    C25     24.859218   17.579561   22.321013 C.3        1 MOL1         0.2972
      86    H41     25.480097   16.734128   22.644436 H          1 MOL1         0.0751
      87    O21     23.580497   17.130176   21.830454 O.3        1 MOL1        -0.3740
      88    C26     24.642935   18.553167   23.507694 C.3        1 MOL1         0.1003
      89    H42     25.625225   18.958000   23.783061 H          1 MOL1         0.0783
      90    O22     24.099695   17.848262   24.634969 O.3        1 MOL1        -0.5519
      91    H43     23.400572   18.416854   25.047081 H          1 MOL1         0.3769
      92    C27     23.748778   19.740883   23.076690 C.3        1 MOL1         0.1053
      93    H44     22.749547   19.348267   22.849226 H          1 MOL1         0.0783
      94    O23     23.663170   20.713445   24.127284 O.3        1 MOL1        -0.5519
      95    H45     23.038248   20.338314   24.802900 H          1 MOL1         0.3769
      96    C28     24.299821   20.422339   21.798435 C.3        1 MOL1         0.1018
      97    H46     25.153462   21.056073   22.072938 H          1 MOL1         0.0783
      98    C29     24.716933   19.405897   20.697616 C.3        1 MOL1         0.1043
      99    H47     23.791770   19.001528   20.271069 H          1 MOL1         0.0783
     100    O24     25.497935   18.314906   21.254656 O.3        1 MOL1        -0.3740
     101    C30     25.516946   20.039326   19.534290 C.3        1 MOL1         0.0138
     102    H48     24.837070   20.671320   18.947105 H          1 MOL1         0.0794
     103    H49     25.868677   19.237566   18.871215 H          1 MOL1         0.0794
     104    O25     26.623554   20.819471   20.002785 O.3        1 MOL1        -0.5486
     105    H50     27.132240   21.117847   19.217497 H          1 MOL1         0.3769
     106    C31     21.436014   13.951126   20.397308 C.3        1 MOL1         0.2972
     107    H51     21.020885   13.046986   19.934016 H          1 MOL1         0.0751
     108    O26     20.393831   14.885109   20.755735 O.3        1 MOL1        -0.3740
     109    C32     22.299691   13.601307   21.637428 C.3        1 MOL1         0.1003
     110    H52     23.142504   12.998262   21.275180 H          1 MOL1         0.0783
     111    O27     21.572093   12.834456   22.608384 O.3        1 MOL1        -0.5519
     112    H53     20.873517   13.433544   22.974307 H          1 MOL1         0.3769
     113    C33     22.881745   14.881928   22.283462 C.3        1 MOL1         0.1053
     114    H54     22.056488   15.438330   22.749190 H          1 MOL1         0.0783
     115    O28     23.835693   14.497116   23.278904 O.3        1 MOL1        -0.5519
     116    H55     23.369819   13.850946   23.852452 H          1 MOL1         0.3769
     117    C34     23.558655   15.814719   21.242791 C.3        1 MOL1         0.1018
     118    H56     24.569113   15.433182   21.048525 H          1 MOL1         0.0783
     119    C35     22.781765   15.927915   19.896329 C.3        1 MOL1         0.1043
     120    H57     21.910285   16.569219   20.062494 H          1 MOL1         0.0783
     121    O29     22.322647   14.619573   19.473951 O.3        1 MOL1        -0.3740
     122    C36     23.576175   16.574842   18.729658 C.3        1 MOL1         0.0138
     123    H58     23.322641   17.640960   18.685924 H          1 MOL1         0.0794
     124    H59     23.228158   16.135936   17.785034 H          1 MOL1         0.0794
     125    O30     24.996848   16.421471   18.844060 O.3        1 MOL1        -0.5486
     126    H60     25.288513   16.955739   19.619351 H          1 MOL1         0.3769
     127    C1      20.772946   18.777091   25.597843 C.2        1 MOL1         0.6115
     128    O1      20.041417   18.603768   26.552306 O.co2      1 MOL1        -0.6776
     129    O2      21.896581   19.238480   25.680801 O.co2      1 MOL1        -0.6776
     130    C2      20.249976   18.420122   24.209996 C.3        1 MOL1        -0.2013
     131    H1      19.399137   17.738662   24.327857 H          1 MOL1         0.0727
     132    H2      21.040578   17.865552   23.692674 H          1 MOL1         0.0727
     133    C3      19.819847   19.668186   23.395389 C.3        1 MOL1        -0.1910
     134    H3      19.050922   20.205074   23.966004 H          1 MOL1         0.0729
     135    H4      20.668742   20.356349   23.300191 H          1 MOL1         0.0729
     136    C4      19.263770   19.336056   21.991632 C.3        1 MOL1        -0.1909
     137    H5      18.882151   20.259943   21.540663 H          1 MOL1         0.0729
     138    H6      18.408083   18.656382   22.088570 H          1 MOL1         0.0729
     139    C5      20.316584   18.715949   21.048896 C.3        1 MOL1        -0.1884
     140    H7      21.209042   19.352137   21.016310 H          1 MOL1         0.0729
     141    H8      20.635304   17.743117   21.442026 H          1 MOL1         0.0729
     142    C6      19.763822   18.533891   19.622159 C.3        1 MOL1        -0.2899
     143    H9      18.931825   17.821412   19.624399 H          1 MOL1         0.0741
     144    H10     19.404579   19.486489   19.213320 H          1 MOL1         0.0741
     145    H11     20.539094   18.146484   18.949956 H          1 MOL1         0.0741
@<TRIPOS>BOND
    1     1     2    1
    2     1     3    1
    3     1     4    1
    4     4     5    1
    5     4     6    1
    6     6     7    1
    7     4     8    1
    8     8     9    1
    9     8    10    1
   10    10    11    1
   11     8    12    1
   12    12    13    1
   13    12    14    1
   14    14    15    1
   15     1    16    1
   16    14    16    1
   17    14    17    1
   18    17    18    1
   19    17    19    1
   20    17    20    1
   21    20    21    1
   22    22    23    1
   23    22    24    1
   24    22    25    1
   25    25    26    1
   26    25    27    1
   27    27    28    1
   28    25    29    1
   29    29    30    1
   30    29    31    1
   31    31    32    1
   32     3    33    1
   33    29    33    1
   34    33    34    1
   35    33    35    1
   36    35    36    1
   37    22    37    1
   38    35    37    1
   39    35    38    1
   40    38    39    1
   41    38    40    1
   42    38    41    1
   43    41    42    1
   44    43    44    1
   45    43    45    1
   46    43    46    1
   47    46    47    1
   48    46    48    1
   49    48    49    1
   50    46    50    1
   51    50    51    1
   52    50    52    1
   53    52    53    1
   54    24    54    1
   55    50    54    1
   56    54    55    1
   57    54    56    1
   58    56    57    1
   59    43    58    1
   60    56    58    1
   61    56    59    1
   62    59    60    1
   63    59    61    1
   64    59    62    1
   65    62    63    1
   66    64    65    1
   67    64    66    1
   68    64    67    1
   69    67    68    1
   70    67    69    1
   71    69    70    1
   72    67    71    1
   73    71    72    1
   74    71    73    1
   75    73    74    1
   76    45    75    1
   77    71    75    1
   78    75    76    1
   79    75    77    1
   80    77    78    1
   81    64    79    1
   82    77    79    1
   83    77    80    1
   84    80    81    1
   85    80    82    1
   86    80    83    1
   87    83    84    1
   88    85    86    1
   89    85    87    1
   90    85    88    1
   91    88    89    1
   92    88    90    1
   93    90    91    1
   94    88    92    1
   95    92    93    1
   96    92    94    1
   97    94    95    1
   98    66    96    1
   99    92    96    1
  100    96    97    1
  101    96    98    1
  102    98    99    1
  103    85   100    1
  104    98   100    1
  105    98   101    1
  106   101   102    1
  107   101   103    1
  108   101   104    1
  109   104   105    1
  110   106   107    1
  111    12   108    1
  112   106   108    1
  113   106   109    1
  114   109   110    1
  115   109   111    1
  116   111   112    1
  117   109   113    1
  118   113   114    1
  119   113   115    1
  120   115   116    1
  121    87   117    1
  122   113   117    1
  123   117   118    1
  124   117   119    1
  125   119   120    1
  126   106   121    1
  127   119   121    1
  128   119   122    1
  129   122   123    1
  130   122   124    1
  131   122   125    1
  132   125   126    1
  133   127   128    1
  134   127   129    2
  135   127   130    1
  136   130   131    1
  137   130   132    1
  138   130   133    1
  139   133   134    1
  140   133   135    1
  141   133   136    1
  142   136   137    1
  143   136   138    1
  144   136   139    1
  145   139   140    1
  146   139   141    1
  147   139   142    1
  148   142   143    1
  149   142   144    1
  150   142   145    1
@<TRIPOS>SUBSTRUCTURE
       1 MOL1            1 RESIDUE      1      MOL     
       2 MOL1          145 RESIDUE      1      MOL     
@<SCITEGIC>MOL_PROPERTY
feprocess Rank
SciTegic.value.IntegerValue
7

@<SCITEGIC>MOL_PROPERTY
Conf_Id
SciTegic.value.IntegerValue
764

@<SCITEGIC>MOL_PROPERTY
Probability
SciTegic.value.DoubleValue
1.94

@<SCITEGIC>MOL_PROPERTY
G
SciTegic.value.DoubleValue
499.457

@<SCITEGIC>MOL_PROPERTY
E
SciTegic.value.DoubleValue
313.189

@<SCITEGIC>MOL_PROPERTY
-TS
SciTegic.value.DoubleValue
186.268

@<SCITEGIC>MOL_PROPERTY
U+W
SciTegic.value.DoubleValue
185.312

@<SCITEGIC>MOL_PROPERTY
U
SciTegic.value.DoubleValue
266.732

@<SCITEGIC>MOL_PROPERTY
W
SciTegic.value.DoubleValue
-81.420

@<SCITEGIC>MOL_PROPERTY
W(PB)
SciTegic.value.DoubleValue
-87.429

@<SCITEGIC>MOL_PROPERTY
W(SA)
SciTegic.value.DoubleValue
6.009

@<SCITEGIC>MOL_PROPERTY
Valence
SciTegic.value.DoubleValue
153.495

@<SCITEGIC>MOL_PROPERTY
Coulomb
SciTegic.value.DoubleValue
138.863

@<SCITEGIC>MOL_PROPERTY
VdW
SciTegic.value.DoubleValue
-25.626

@<SCITEGIC>MOL_PROPERTY
VdW6
SciTegic.value.DoubleValue
-183.356

@<SCITEGIC>MOL_PROPERTY
VdW12
SciTegic.value.DoubleValue
157.730

@<SCITEGIC>MOL_PROPERTY
Bond
SciTegic.value.DoubleValue
4.825

@<SCITEGIC>MOL_PROPERTY
Angle
SciTegic.value.DoubleValue
14.369

@<SCITEGIC>MOL_PROPERTY
Pdih
SciTegic.value.DoubleValue
134.300

@<SCITEGIC>MOL_PROPERTY
Idih
SciTegic.value.DoubleValue
0.001

@<SCITEGIC>MOL_PROPERTY
Tether
SciTegic.value.DoubleValue
0.000

@<TRIPOS>MOLECULE
CD_guest-7_fast_vm2_rndm.mol2 : feprocess host+ligand conformer 8
         145         150           2
SMALL
USER_CHARGES
 
@<TRIPOS>ATOM
       1    C1      16.331659   15.212442   20.582088 C.3        1 MOL1         0.2972
       2    H1      15.311797   15.079942   20.198942 H          1 MOL1         0.0751
       3    O1      16.612650   16.600896   20.856906 O.3        1 MOL1        -0.3740
       4    C2      16.567780   14.358027   21.858720 C.3        1 MOL1         0.1003
       5    H2      16.439526   13.307333   21.567736 H          1 MOL1         0.0783
       6    O2      15.627265   14.663609   22.898642 O.3        1 MOL1        -0.5519
       7    H3      15.788967   15.604599   23.162975 H          1 MOL1         0.3769
       8    C3      18.018872   14.532536   22.368468 C.3        1 MOL1         0.1053
       9    H4      18.142212   15.570326   22.706978 H          1 MOL1         0.0783
      10    O3      18.257444   13.636434   23.459678 O.3        1 MOL1        -0.5519
      11    H5      17.471089   13.724354   24.042397 H          1 MOL1         0.3769
      12    C4      19.040846   14.261978   21.236152 C.3        1 MOL1         0.1018
      13    H6      19.056217   13.181714   21.041234 H          1 MOL1         0.0783
      14    C5      18.683009   15.014769   19.920817 C.3        1 MOL1         0.1043
      15    H7      18.830144   16.088499   20.084131 H          1 MOL1         0.0783
      16    O4      17.290883   14.767331   19.597022 O.3        1 MOL1        -0.3740
      17    C6      19.542972   14.637098   18.686764 C.3        1 MOL1         0.0138
      18    H8      20.407863   15.309951   18.645878 H          1 MOL1         0.0794
      19    H9      18.953740   14.829835   17.780325 H          1 MOL1         0.0794
      20    O5      19.992111   13.277185   18.698410 O.3        1 MOL1        -0.5486
      21    H10     20.763130   13.238092   19.311339 H          1 MOL1         0.3769
      22    C7      14.912053   20.306188   21.565652 C.3        1 MOL1         0.2972
      23    H11     14.255786   21.157459   21.787598 H          1 MOL1         0.0751
      24    O6      16.194766   20.737220   21.069929 O.3        1 MOL1        -0.3740
      25    C8      15.123937   19.440204   22.834145 C.3        1 MOL1         0.1003
      26    H12     14.139401   19.057310   23.132806 H          1 MOL1         0.0783
      27    O7      15.677686   20.203786   23.917773 O.3        1 MOL1        -0.5519
      28    H13     15.675827   21.151244   23.638854 H          1 MOL1         0.3769
      29    C9      16.033406   18.231264   22.521246 C.3        1 MOL1         0.1053
      30    H14     17.030720   18.618592   22.279074 H          1 MOL1         0.0783
      31    O8      16.104714   17.393648   23.679272 O.3        1 MOL1        -0.5519
      32    H15     16.299741   18.015363   24.416200 H          1 MOL1         0.3769
      33    C10     15.517885   17.428398   21.299649 C.3        1 MOL1         0.1018
      34    H16     14.648951   16.833006   21.609191 H          1 MOL1         0.0783
      35    C11     15.132170   18.348529   20.105886 C.3        1 MOL1         0.1043
      36    H17     16.060155   18.740640   19.668956 H          1 MOL1         0.0783
      37    O9      14.315560   19.459374   20.560407 O.3        1 MOL1        -0.3740
      38    C12     14.372647   17.610874   18.977365 C.3        1 MOL1         0.0138
      39    H18     15.077001   16.942657   18.463649 H          1 MOL1         0.0794
      40    H19     14.031861   18.352355   18.242391 H          1 MOL1         0.0794
      41    O10     13.261349   16.855045   19.475511 O.3        1 MOL1        -0.5486
      42    H20     12.782849   16.484028   18.702232 H          1 MOL1         0.3769
      43    C13     18.534170   24.131046   20.770498 C.3        1 MOL1         0.2972
      44    H21     18.983912   25.110783   20.563942 H          1 MOL1         0.0751
      45    O11     19.517181   23.172714   21.210805 O.3        1 MOL1        -0.3740
      46    C14     17.424651   24.233678   21.847658 C.3        1 MOL1         0.1003
      47    H22     16.631744   24.870661   21.434384 H          1 MOL1         0.0783
      48    O12     17.911760   24.829159   23.059559 O.3        1 MOL1        -0.5519
      49    H23     18.670967   24.275178   23.374208 H          1 MOL1         0.3769
      50    C15     16.814091   22.838215   22.130780 C.3        1 MOL1         0.1053
      51    H24     17.588074   22.212386   22.597959 H          1 MOL1         0.0783
      52    O13     15.707888   22.994272   23.026113 O.3        1 MOL1        -0.5519
      53    H25     16.007600   23.662543   23.683980 H          1 MOL1         0.3769
      54    C16     16.356911   22.145601   20.816157 C.3        1 MOL1         0.1018
      55    H26     15.418803   22.603116   20.477560 H          1 MOL1         0.0783
      56    C17     17.413626   22.252790   19.680517 C.3        1 MOL1         0.1043
      57    H27     18.250309   21.590252   19.928015 H          1 MOL1         0.0783
      58    O14     17.908921   23.610287   19.577978 O.3        1 MOL1        -0.3740
      59    C18     16.890669   21.799036   18.295388 C.3        1 MOL1         0.0138
      60    H28     16.801953   20.704291   18.299136 H          1 MOL1         0.0794
      61    H29     17.642221   22.059157   17.538331 H          1 MOL1         0.0794
      62    O15     15.627707   22.385564   17.957214 O.3        1 MOL1        -0.5486
      63    H30     14.941002   21.933365   18.492915 H          1 MOL1         0.3769
      64    C19     23.445299   22.632840   22.296675 C.3        1 MOL1         0.2972
      65    H31     24.494360   22.705751   22.610638 H          1 MOL1         0.0751
      66    O16     23.112757   21.293865   21.876811 O.3        1 MOL1        -0.3740
      67    C20     22.514709   23.043573   23.464626 C.3        1 MOL1         0.1003
      68    H32     22.692234   24.108140   23.664278 H          1 MOL1         0.0783
      69    O17     22.837897   22.297404   24.647188 O.3        1 MOL1        -0.5519
      70    H33     22.001448   21.890588   24.986672 H          1 MOL1         0.3769
      71    C21     21.031704   22.884552   23.042890 C.3        1 MOL1         0.1053
      72    H34     20.837843   21.827577   22.825991 H          1 MOL1         0.0783
      73    O18     20.157694   23.316664   24.093336 O.3        1 MOL1        -0.5519
      74    H35     20.143514   22.573383   24.753307 H          1 MOL1         0.3769
      75    C22     20.749102   23.689029   21.748448 C.3        1 MOL1         0.1018
      76    H36     20.677572   24.755057   22.002067 H          1 MOL1         0.0783
      77    C23     21.827268   23.462396   20.648672 C.3        1 MOL1         0.1043
      78    H37     21.658004   22.460757   20.239355 H          1 MOL1         0.0783
      79    O19     23.173210   23.523170   21.192107 O.3        1 MOL1        -0.3740
      80    C24     21.726848   24.458740   19.469200 C.3        1 MOL1         0.0138
      81    H38     20.818751   24.229080   18.895336 H          1 MOL1         0.0794
      82    H39     22.583263   24.299787   18.800196 H          1 MOL1         0.0794
      83    O20     21.688511   25.819646   19.916115 O.3        1 MOL1        -0.5486
      84    H40     21.702761   26.395200   19.120447 H          1 MOL1         0.3769
      85    C25     24.860966   17.673494   20.863672 C.3        1 MOL1         0.2972
      86    H41     25.482254   16.864887   20.457599 H          1 MOL1         0.0751
      87    O21     23.641976   17.172362   21.442344 O.3        1 MOL1        -0.3740
      88    C26     25.617017   18.450037   21.969443 C.3        1 MOL1         0.1003
      89    H42     26.533232   18.850110   21.516104 H          1 MOL1         0.0783
      90    O22     25.969122   17.576681   23.055761 O.3        1 MOL1        -0.5519
      91    H43     25.149221   17.084158   23.313984 H          1 MOL1         0.3769
      92    C27     24.782523   19.647620   22.493710 C.3        1 MOL1         0.1053
      93    H44     23.945731   19.250151   23.084342 H          1 MOL1         0.0783
      94    O23     25.626361   20.454342   23.321256 O.3        1 MOL1        -0.5519
      95    H45     26.023371   19.834586   23.971121 H          1 MOL1         0.3769
      96    C28     24.190259   20.503664   21.339577 C.3        1 MOL1         0.1018
      97    H46     24.987077   21.132950   20.922748 H          1 MOL1         0.0783
      98    C29     23.573824   19.637505   20.206363 C.3        1 MOL1         0.1043
      99    H47     22.663076   19.163479   20.593186 H          1 MOL1         0.0783
     100    O24     24.516699   18.610723   19.821594 O.3        1 MOL1        -0.3740
     101    C30     23.158976   20.430893   18.939934 C.3        1 MOL1         0.0138
     102    H48     22.116405   20.749313   19.059402 H          1 MOL1         0.0794
     103    H49     23.180347   19.751345   18.077628 H          1 MOL1         0.0794
     104    O25     23.988180   21.573329   18.687625 O.3        1 MOL1        -0.5486
     105    H50     23.871533   22.193535   19.442642 H          1 MOL1         0.3769
     106    C31     21.364174   13.766041   21.805633 C.3        1 MOL1         0.2972
     107    H51     20.964614   12.747654   21.894375 H          1 MOL1         0.0751
     108    O26     20.308921   14.742653   21.719716 O.3        1 MOL1        -0.3740
     109    C32     22.222802   14.098015   23.049347 C.3        1 MOL1         0.1003
     110    H52     23.053403   13.381097   23.083403 H          1 MOL1         0.0783
     111    O27     21.432341   13.972282   24.241697 O.3        1 MOL1        -0.5519
     112    H53     20.508135   14.213927   23.991636 H          1 MOL1         0.3769
     113    C33     22.818749   15.520378   22.942716 C.3        1 MOL1         0.1053
     114    H54     21.991291   16.235692   23.024025 H          1 MOL1         0.0783
     115    O28     23.747018   15.737780   24.011303 O.3        1 MOL1        -0.5519
     116    H55     23.271549   15.453842   24.823276 H          1 MOL1         0.3769
     117    C34     23.528617   15.745767   21.585202 C.3        1 MOL1         0.1018
     118    H56     24.510624   15.255542   21.620671 H          1 MOL1         0.0783
     119    C35     22.707017   15.223641   20.371819 C.3        1 MOL1         0.1043
     120    H57     21.864496   15.911579   20.224559 H          1 MOL1         0.0783
     121    O29     22.194635   13.891608   20.633822 O.3        1 MOL1        -0.3740
     122    C36     23.503509   15.182686   19.045376 C.3        1 MOL1         0.0138
     123    H58     23.659846   16.212972   18.698687 H          1 MOL1         0.0794
     124    H59     22.894302   14.674128   18.286151 H          1 MOL1         0.0794
     125    O30     24.766076   14.521427   19.193851 O.3        1 MOL1        -0.5486
     126    H60     25.177645   14.461415   18.304288 H          1 MOL1         0.3769
     127    C1      20.844329   19.727570   25.478031 C.2        1 MOL1         0.6115
     128    O1      20.571842   20.914541   25.512675 O.co2      1 MOL1        -0.6776
     129    O2      20.979906   19.034201   26.466358 O.co2      1 MOL1        -0.6776
     130    C2      21.049122   19.084063   24.110406 C.3        1 MOL1        -0.2013
     131    H1      21.785661   18.279191   24.212311 H          1 MOL1         0.0727
     132    H2      21.492871   19.832789   23.450343 H          1 MOL1         0.0727
     133    C3      19.731776   18.532175   23.511180 C.3        1 MOL1        -0.1910
     134    H3      19.440106   17.635743   24.075100 H          1 MOL1         0.0729
     135    H4      18.925134   19.263761   23.658857 H          1 MOL1         0.0729
     136    C4      19.837370   18.179691   22.010288 C.3        1 MOL1        -0.1909
     137    H5      18.998101   17.524316   21.757498 H          1 MOL1         0.0729
     138    H6      20.752013   17.608569   21.813708 H          1 MOL1         0.0729
     139    C5      19.784158   19.420675   21.095680 C.3        1 MOL1        -0.1884
     140    H7      18.898147   20.015926   21.349042 H          1 MOL1         0.0729
     141    H8      20.654814   20.061763   21.275973 H          1 MOL1         0.0729
     142    C6      19.729881   19.022536   19.606698 C.3        1 MOL1        -0.2899
     143    H9      19.732085   19.913143   18.966263 H          1 MOL1         0.0741
     144    H10     20.593788   18.403056   19.334194 H          1 MOL1         0.0741
     145    H11     18.816752   18.452762   19.390951 H          1 MOL1         0.0741
@<TRIPOS>BOND
    1     1     2    1
    2     1     3    1
    3     1     4    1
    4     4     5    1
    5     4     6    1
    6     6     7    1
    7     4     8    1
    8     8     9    1
    9     8    10    1
   10    10    11    1
   11     8    12    1
   12    12    13    1
   13    12    14    1
   14    14    15    1
   15     1    16    1
   16    14    16    1
   17    14    17    1
   18    17    18    1
   19    17    19    1
   20    17    20    1
   21    20    21    1
   22    22    23    1
   23    22    24    1
   24    22    25    1
   25    25    26    1
   26    25    27    1
   27    27    28    1
   28    25    29    1
   29    29    30    1
   30    29    31    1
   31    31    32    1
   32     3    33    1
   33    29    33    1
   34    33    34    1
   35    33    35    1
   36    35    36    1
   37    22    37    1
   38    35    37    1
   39    35    38    1
   40    38    39    1
   41    38    40    1
   42    38    41    1
   43    41    42    1
   44    43    44    1
   45    43    45    1
   46    43    46    1
   47    46    47    1
   48    46    48    1
   49    48    49    1
   50    46    50    1
   51    50    51    1
   52    50    52    1
   53    52    53    1
   54    24    54    1
   55    50    54    1
   56    54    55    1
   57    54    56    1
   58    56    57    1
   59    43    58    1
   60    56    58    1
   61    56    59    1
   62    59    60    1
   63    59    61    1
   64    59    62    1
   65    62    63    1
   66    64    65    1
   67    64    66    1
   68    64    67    1
   69    67    68    1
   70    67    69    1
   71    69    70    1
   72    67    71    1
   73    71    72    1
   74    71    73    1
   75    73    74    1
   76    45    75    1
   77    71    75    1
   78    75    76    1
   79    75    77    1
   80    77    78    1
   81    64    79    1
   82    77    79    1
   83    77    80    1
   84    80    81    1
   85    80    82    1
   86    80    83    1
   87    83    84    1
   88    85    86    1
   89    85    87    1
   90    85    88    1
   91    88    89    1
   92    88    90    1
   93    90    91    1
   94    88    92    1
   95    92    93    1
   96    92    94    1
   97    94    95    1
   98    66    96    1
   99    92    96    1
  100    96    97    1
  101    96    98    1
  102    98    99    1
  103    85   100    1
  104    98   100    1
  105    98   101    1
  106   101   102    1
  107   101   103    1
  108   101   104    1
  109   104   105    1
  110   106   107    1
  111    12   108    1
  112   106   108    1
  113   106   109    1
  114   109   110    1
  115   109   111    1
  116   111   112    1
  117   109   113    1
  118   113   114    1
  119   113   115    1
  120   115   116    1
  121    87   117    1
  122   113   117    1
  123   117   118    1
  124   117   119    1
  125   119   120    1
  126   106   121    1
  127   119   121    1
  128   119   122    1
  129   122   123    1
  130   122   124    1
  131   122   125    1
  132   125   126    1
  133   127   128    1
  134   127   129    2
  135   127   130    1
  136   130   131    1
  137   130   132    1
  138   130   133    1
  139   133   134    1
  140   133   135    1
  141   133   136    1
  142   136   137    1
  143   136   138    1
  144   136   139    1
  145   139   140    1
  146   139   141    1
  147   139   142    1
  148   142   143    1
  149   142   144    1
  150   142   145    1
@<TRIPOS>SUBSTRUCTURE
       1 MOL1            1 RESIDUE      1      MOL     
       2 MOL1          145 RESIDUE      1      MOL     
@<SCITEGIC>MOL_PROPERTY
feprocess Rank
SciTegic.value.IntegerValue
8

@<SCITEGIC>MOL_PROPERTY
Conf_Id
SciTegic.value.IntegerValue
168

@<SCITEGIC>MOL_PROPERTY
Probability
SciTegic.value.DoubleValue
1.52

@<SCITEGIC>MOL_PROPERTY
G
SciTegic.value.DoubleValue
499.604

@<SCITEGIC>MOL_PROPERTY
E
SciTegic.value.DoubleValue
312.718

@<SCITEGIC>MOL_PROPERTY
-TS
SciTegic.value.DoubleValue
186.886

@<SCITEGIC>MOL_PROPERTY
U+W
SciTegic.value.DoubleValue
184.841

@<SCITEGIC>MOL_PROPERTY
U
SciTegic.value.DoubleValue
266.279

@<SCITEGIC>MOL_PROPERTY
W
SciTegic.value.DoubleValue
-81.438

@<SCITEGIC>MOL_PROPERTY
W(PB)
SciTegic.value.DoubleValue
-87.489

@<SCITEGIC>MOL_PROPERTY
W(SA)
SciTegic.value.DoubleValue
6.052

@<SCITEGIC>MOL_PROPERTY
Valence
SciTegic.value.DoubleValue
152.626

@<SCITEGIC>MOL_PROPERTY
Coulomb
SciTegic.value.DoubleValue
138.783

@<SCITEGIC>MOL_PROPERTY
VdW
SciTegic.value.DoubleValue
-25.130

@<SCITEGIC>MOL_PROPERTY
VdW6
SciTegic.value.DoubleValue
-183.082

@<SCITEGIC>MOL_PROPERTY
VdW12
SciTegic.value.DoubleValue
157.952

@<SCITEGIC>MOL_PROPERTY
Bond
SciTegic.value.DoubleValue
4.842

@<SCITEGIC>MOL_PROPERTY
Angle
SciTegic.value.DoubleValue
14.088

@<SCITEGIC>MOL_PROPERTY
Pdih
SciTegic.value.DoubleValue
133.695

@<SCITEGIC>MOL_PROPERTY
Idih
SciTegic.value.DoubleValue
0.001

@<SCITEGIC>MOL_PROPERTY
Tether
SciTegic.value.DoubleValue
0.000

