@<TRIPOS>MOLECULE
CD_guest-s17_fast_vm2_rndm.mol2 : feprocess host+ligand conformer 1
         151         157           2
SMALL
USER_CHARGES
 
@<TRIPOS>ATOM
       1    C1      16.300871   15.343314   20.422474 C.3        1 MOL1         0.2972
       2    H1      15.314903   15.217589   19.956708 H          1 MOL1         0.0751
       3    O1      16.425406   16.622552   21.073744 O.3        1 MOL1        -0.3740
       4    C2      16.543655   14.250665   21.495445 C.3        1 MOL1         0.1003
       5    H2      16.461016   13.275445   20.998414 H          1 MOL1         0.0783
       6    O2      15.560909   14.337255   22.540879 O.3        1 MOL1        -0.5519
       7    H3      15.478941   15.292450   22.790264 H          1 MOL1         0.3769
       8    C3      17.969199   14.367087   22.090146 C.3        1 MOL1         0.1053
       9    H4      18.017805   15.292465   22.674682 H          1 MOL1         0.0783
      10    O3      18.231621   13.248291   22.943321 O.3        1 MOL1        -0.5519
      11    H5      17.428437   13.157256   23.502382 H          1 MOL1         0.3769
      12    C4      19.045738   14.450972   20.980980 C.3        1 MOL1         0.1018
      13    H6      19.142782   13.462257   20.513518 H          1 MOL1         0.0783
      14    C5      18.684227   15.500613   19.893155 C.3        1 MOL1         0.1043
      15    H7      18.721025   16.499714   20.344665 H          1 MOL1         0.0783
      16    O4      17.340446   15.238752   19.425237 O.3        1 MOL1        -0.3740
      17    C6      19.631365   15.528244   18.665447 C.3        1 MOL1         0.0138
      18    H8      20.448941   16.229401   18.871361 H          1 MOL1         0.0794
      19    H9      19.078055   15.933705   17.807879 H          1 MOL1         0.0794
      20    O5      20.172557   14.243849   18.335665 O.3        1 MOL1        -0.5486
      21    H10     20.889807   14.059558   18.986008 H          1 MOL1         0.3769
      22    C7      14.594718   20.313138   21.344425 C.3        1 MOL1         0.2972
      23    H11     13.921287   21.179913   21.342047 H          1 MOL1         0.0751
      24    O6      15.973229   20.701386   21.505816 O.3        1 MOL1        -0.3740
      25    C8      14.238753   19.333355   22.490819 C.3        1 MOL1         0.1003
      26    H12     13.221133   18.964582   22.307738 H          1 MOL1         0.0783
      27    O7      14.280717   19.989210   23.768198 O.3        1 MOL1        -0.5519
      28    H13     15.131699   20.494839   23.816866 H          1 MOL1         0.3769
      29    C9      15.199807   18.120715   22.471591 C.3        1 MOL1         0.1053
      30    H14     16.205339   18.488073   22.710314 H          1 MOL1         0.0783
      31    O8      14.788350   17.157988   23.448634 O.3        1 MOL1        -0.5519
      32    H15     14.602150   17.681057   24.259551 H          1 MOL1         0.3769
      33    C10     15.250768   17.455710   21.074494 C.3        1 MOL1         0.1018
      34    H16     14.331711   16.869384   20.942891 H          1 MOL1         0.0783
      35    C11     15.399273   18.486214   19.917842 C.3        1 MOL1         0.1043
      36    H17     16.426593   18.873701   19.935391 H          1 MOL1         0.0783
      37    O9      14.474542   19.586829   20.103669 O.3        1 MOL1        -0.3740
      38    C12     15.157309   17.886498   18.511395 C.3        1 MOL1         0.0138
      39    H18     16.011186   17.247116   18.251355 H          1 MOL1         0.0794
      40    H19     15.133087   18.706656   17.781458 H          1 MOL1         0.0794
      41    O10     13.943164   17.127272   18.447032 O.3        1 MOL1        -0.5486
      42    H20     13.822189   16.838193   17.516292 H          1 MOL1         0.3769
      43    C13     18.541868   23.904123   21.756044 C.3        1 MOL1         0.2972
      44    H21     19.032625   24.880827   21.853630 H          1 MOL1         0.0751
      45    O11     19.461387   22.886985   21.312708 O.3        1 MOL1        -0.3740
      46    C14     17.946005   23.464637   23.115859 C.3        1 MOL1         0.1003
      47    H22     17.191013   24.210518   23.396626 H          1 MOL1         0.0783
      48    O12     18.963524   23.416420   24.130663 O.3        1 MOL1        -0.5519
      49    H23     19.729655   23.937675   23.785125 H          1 MOL1         0.3769
      50    C15     17.243987   22.092018   22.978092 C.3        1 MOL1         0.1053
      51    H24     18.006191   21.335600   22.757434 H          1 MOL1         0.0783
      52    O13     16.589047   21.766632   24.207732 O.3        1 MOL1        -0.5519
      53    H25     17.235935   22.008624   24.906744 H          1 MOL1         0.3769
      54    C16     16.226144   22.085631   21.810668 C.3        1 MOL1         0.1018
      55    H26     15.319782   22.612500   22.137054 H          1 MOL1         0.0783
      56    C17     16.786278   22.731857   20.510798 C.3        1 MOL1         0.1043
      57    H27     17.509313   22.032401   20.071949 H          1 MOL1         0.0783
      58    O14     17.460905   23.981253   20.804147 O.3        1 MOL1        -0.3740
      59    C18     15.700795   22.999490   19.440726 C.3        1 MOL1         0.0138
      60    H28     15.363518   22.034951   19.037712 H          1 MOL1         0.0794
      61    H29     16.155663   23.557915   18.611664 H          1 MOL1         0.0794
      62    O15     14.582476   23.720490   19.973607 O.3        1 MOL1        -0.5486
      63    H30     13.966912   23.905906   19.231114 H          1 MOL1         0.3769
      64    C19     23.542363   22.496481   20.538669 C.3        1 MOL1         0.2972
      65    H31     24.563987   22.617837   20.155854 H          1 MOL1         0.0751
      66    O16     23.373102   21.238338   21.218640 O.3        1 MOL1        -0.3740
      67    C20     23.181161   23.629609   21.535527 C.3        1 MOL1         0.1003
      68    H32     23.264907   24.580354   20.993197 H          1 MOL1         0.0783
      69    O17     24.083908   23.645283   22.653190 O.3        1 MOL1        -0.5519
      70    H33     24.125207   22.724063   23.016258 H          1 MOL1         0.3769
      71    C21     21.718061   23.488094   22.027432 C.3        1 MOL1         0.1053
      72    H34     21.655287   22.575770   22.631110 H          1 MOL1         0.0783
      73    O18     21.380362   24.622267   22.834177 O.3        1 MOL1        -0.5519
      74    H35     22.172729   24.776160   23.397241 H          1 MOL1         0.3769
      75    C22     20.737423   23.345974   20.830695 C.3        1 MOL1         0.1018
      76    H36     20.649270   24.314286   20.321422 H          1 MOL1         0.0783
      77    C23     21.217735   22.277240   19.813726 C.3        1 MOL1         0.1043
      78    H37     21.151140   21.291627   20.293665 H          1 MOL1         0.0783
      79    O19     22.593872   22.543023   19.450147 O.3        1 MOL1        -0.3740
      80    C24     20.359470   22.206845   18.525247 C.3        1 MOL1         0.0138
      81    H38     19.442847   21.645917   18.750204 H          1 MOL1         0.0794
      82    H39     20.910465   21.632403   17.768842 H          1 MOL1         0.0794
      83    O20     20.015846   23.499282   18.010681 O.3        1 MOL1        -0.5486
      84    H40     19.364204   23.895451   18.629439 H          1 MOL1         0.3769
      85    C25     25.162133   17.680283   22.147968 C.3        1 MOL1         0.2972
      86    H41     25.811360   16.825128   22.375429 H          1 MOL1         0.0751
      87    O21     23.775373   17.296415   22.065541 O.3        1 MOL1        -0.3740
      88    C26     25.292570   18.749298   23.257098 C.3        1 MOL1         0.1003
      89    H42     26.330883   19.105558   23.262119 H          1 MOL1         0.0783
      90    O22     24.972657   18.182631   24.538266 O.3        1 MOL1        -0.5519
      91    H43     24.330024   17.447504   24.378225 H          1 MOL1         0.3769
      92    C27     24.370159   19.949929   22.952598 C.3        1 MOL1         0.1053
      93    H44     23.337875   19.595871   23.039056 H          1 MOL1         0.0783
      94    O23     24.602567   20.994009   23.903379 O.3        1 MOL1        -0.5519
      95    H45     24.595660   20.546374   24.778555 H          1 MOL1         0.3769
      96    C28     24.567980   20.491351   21.515341 C.3        1 MOL1         0.1018
      97    H46     25.466486   21.122484   21.501365 H          1 MOL1         0.0783
      98    C29     24.675243   19.368222   20.442331 C.3        1 MOL1         0.1043
      99    H47     23.664923   18.971940   20.279200 H          1 MOL1         0.0783
     100    O24     25.535186   18.289888   20.895478 O.3        1 MOL1        -0.3740
     101    C30     25.194887   19.865631   19.072326 C.3        1 MOL1         0.0138
     102    H48     24.414534   20.481527   18.605225 H          1 MOL1         0.0794
     103    H49     25.355981   18.995644   18.421585 H          1 MOL1         0.0794
     104    O25     26.403681   20.624843   19.197020 O.3        1 MOL1        -0.5486
     105    H50     26.715430   20.840037   18.290884 H          1 MOL1         0.3769
     106    C31     21.353077   13.932605   21.582647 C.3        1 MOL1         0.2972
     107    H51     20.996320   12.905379   21.432919 H          1 MOL1         0.0751
     108    O26     20.260202   14.868844   21.629969 O.3        1 MOL1        -0.3740
     109    C32     22.113655   14.030304   22.929131 C.3        1 MOL1         0.1003
     110    H52     22.951779   13.322395   22.891861 H          1 MOL1         0.0783
     111    O27     21.243444   13.683225   24.018022 O.3        1 MOL1        -0.5519
     112    H53     20.322130   13.864422   23.711643 H          1 MOL1         0.3769
     113    C33     22.691145   15.450045   23.132487 C.3        1 MOL1         0.1053
     114    H54     21.848061   16.142082   23.246384 H          1 MOL1         0.0783
     115    O28     23.506469   15.479906   24.308424 O.3        1 MOL1        -0.5519
     116    H55     22.980126   15.010255   24.993152 H          1 MOL1         0.3769
     117    C34     23.514368   15.892399   21.900282 C.3        1 MOL1         0.1018
     118    H56     24.436486   15.297825   21.858844 H          1 MOL1         0.0783
     119    C35     22.715188   15.702233   20.583013 C.3        1 MOL1         0.1043
     120    H57     21.858275   16.387336   20.611417 H          1 MOL1         0.0783
     121    O29     22.236998   14.334049   20.511536 O.3        1 MOL1        -0.3740
     122    C36     23.505314   16.019439   19.286485 C.3        1 MOL1         0.0138
     123    H58     23.385555   17.085508   19.057171 H          1 MOL1         0.0794
     124    H59     23.051400   15.464187   18.454740 H          1 MOL1         0.0794
     125    O30     24.899357   15.706570   19.382073 O.3        1 MOL1        -0.5486
     126    H60     25.325972   16.450704   19.866833 H          1 MOL1         0.3769
     127    C1      18.486787   17.828391   24.163870 C.3        1 MOL1        -0.1684
     128    H1      17.901333   18.658581   24.573159 H          1 MOL1         0.0833
     129    H2      17.726080   17.120941   23.814018 H          1 MOL1         0.0833
     130    C2      19.300660   18.284407   22.924779 C.3        1 MOL1        -0.1684
     131    H3      19.492139   17.396488   22.311082 H          1 MOL1         0.0833
     132    H4      18.676346   18.945134   22.308437 H          1 MOL1         0.0833
     133    C3      20.670112   18.960222   23.184814 C.3        1 MOL1        -0.1684
     134    H5      21.146574   19.126198   22.209234 H          1 MOL1         0.0833
     135    H6      21.340036   18.272191   23.710334 H          1 MOL1         0.0833
     136    C4      20.633934   20.321060   23.923640 C.3        1 MOL1        -0.1760
     137    H7      21.659635   20.704408   23.976244 H          1 MOL1         0.0833
     138    H8      20.079222   21.037385   23.311715 H          1 MOL1         0.0833
     139    C5      20.058443   20.332457   25.358412 C.3        1 MOL1         0.1219
     140    H9      18.966860   20.260217   25.313899 H          1 MOL1         0.0790
     141    C6      20.608025   19.205749   26.270514 C.3        1 MOL1        -0.1760
     142    H10     21.567159   18.832368   25.891855 H          1 MOL1         0.0833
     143    H11     20.836330   19.636522   27.254475 H          1 MOL1         0.0833
     144    C7      19.623661   18.028753   26.505138 C.3        1 MOL1        -0.1684
     145    H12     18.685154   18.420221   26.920621 H          1 MOL1         0.0833
     146    H13     20.049353   17.387085   27.288257 H          1 MOL1         0.0833
     147    C8      19.306735   17.131926   25.279746 C.3        1 MOL1        -0.1684
     148    H14     18.712685   16.283646   25.646019 H          1 MOL1         0.0833
     149    H15     20.223691   16.684265   24.877876 H          1 MOL1         0.0833
     150    O1      20.379907   21.591057   25.937704 O.3        1 MOL1        -0.5508
     151    H16     19.929429   22.271795   25.385461 H          1 MOL1         0.3780
@<TRIPOS>BOND
    1     1     2    1
    2     1     3    1
    3     1     4    1
    4     4     5    1
    5     4     6    1
    6     6     7    1
    7     4     8    1
    8     8     9    1
    9     8    10    1
   10    10    11    1
   11     8    12    1
   12    12    13    1
   13    12    14    1
   14    14    15    1
   15     1    16    1
   16    14    16    1
   17    14    17    1
   18    17    18    1
   19    17    19    1
   20    17    20    1
   21    20    21    1
   22    22    23    1
   23    22    24    1
   24    22    25    1
   25    25    26    1
   26    25    27    1
   27    27    28    1
   28    25    29    1
   29    29    30    1
   30    29    31    1
   31    31    32    1
   32     3    33    1
   33    29    33    1
   34    33    34    1
   35    33    35    1
   36    35    36    1
   37    22    37    1
   38    35    37    1
   39    35    38    1
   40    38    39    1
   41    38    40    1
   42    38    41    1
   43    41    42    1
   44    43    44    1
   45    43    45    1
   46    43    46    1
   47    46    47    1
   48    46    48    1
   49    48    49    1
   50    46    50    1
   51    50    51    1
   52    50    52    1
   53    52    53    1
   54    24    54    1
   55    50    54    1
   56    54    55    1
   57    54    56    1
   58    56    57    1
   59    43    58    1
   60    56    58    1
   61    56    59    1
   62    59    60    1
   63    59    61    1
   64    59    62    1
   65    62    63    1
   66    64    65    1
   67    64    66    1
   68    64    67    1
   69    67    68    1
   70    67    69    1
   71    69    70    1
   72    67    71    1
   73    71    72    1
   74    71    73    1
   75    73    74    1
   76    45    75    1
   77    71    75    1
   78    75    76    1
   79    75    77    1
   80    77    78    1
   81    64    79    1
   82    77    79    1
   83    77    80    1
   84    80    81    1
   85    80    82    1
   86    80    83    1
   87    83    84    1
   88    85    86    1
   89    85    87    1
   90    85    88    1
   91    88    89    1
   92    88    90    1
   93    90    91    1
   94    88    92    1
   95    92    93    1
   96    92    94    1
   97    94    95    1
   98    66    96    1
   99    92    96    1
  100    96    97    1
  101    96    98    1
  102    98    99    1
  103    85   100    1
  104    98   100    1
  105    98   101    1
  106   101   102    1
  107   101   103    1
  108   101   104    1
  109   104   105    1
  110   106   107    1
  111    12   108    1
  112   106   108    1
  113   106   109    1
  114   109   110    1
  115   109   111    1
  116   111   112    1
  117   109   113    1
  118   113   114    1
  119   113   115    1
  120   115   116    1
  121    87   117    1
  122   113   117    1
  123   117   118    1
  124   117   119    1
  125   119   120    1
  126   106   121    1
  127   119   121    1
  128   119   122    1
  129   122   123    1
  130   122   124    1
  131   122   125    1
  132   125   126    1
  133   127   128    1
  134   127   129    1
  135   127   130    1
  136   130   131    1
  137   130   132    1
  138   130   133    1
  139   133   134    1
  140   133   135    1
  141   133   136    1
  142   136   137    1
  143   136   138    1
  144   136   139    1
  145   139   140    1
  146   139   141    1
  147   141   142    1
  148   141   143    1
  149   141   144    1
  150   144   145    1
  151   144   146    1
  152   127   147    1
  153   144   147    1
  154   147   148    1
  155   147   149    1
  156   139   150    1
  157   150   151    1
@<TRIPOS>SUBSTRUCTURE
       1 MOL1            1 RESIDUE      1      MOL     
       2 MOL1          151 RESIDUE      1      MOL     
@<SCITEGIC>MOL_PROPERTY
feprocess Rank
SciTegic.value.IntegerValue
1

@<SCITEGIC>MOL_PROPERTY
Conf_Id
SciTegic.value.IntegerValue
185

@<SCITEGIC>MOL_PROPERTY
Probability
SciTegic.value.DoubleValue
18.68

@<SCITEGIC>MOL_PROPERTY
G
SciTegic.value.DoubleValue
588.088

@<SCITEGIC>MOL_PROPERTY
E
SciTegic.value.DoubleValue
386.348

@<SCITEGIC>MOL_PROPERTY
-TS
SciTegic.value.DoubleValue
201.740

@<SCITEGIC>MOL_PROPERTY
U+W
SciTegic.value.DoubleValue
253.105

@<SCITEGIC>MOL_PROPERTY
U
SciTegic.value.DoubleValue
290.493

@<SCITEGIC>MOL_PROPERTY
W
SciTegic.value.DoubleValue
-37.387

@<SCITEGIC>MOL_PROPERTY
W(PB)
SciTegic.value.DoubleValue
-43.561

@<SCITEGIC>MOL_PROPERTY
W(SA)
SciTegic.value.DoubleValue
6.174

@<SCITEGIC>MOL_PROPERTY
Valence
SciTegic.value.DoubleValue
162.187

@<SCITEGIC>MOL_PROPERTY
Coulomb
SciTegic.value.DoubleValue
150.966

@<SCITEGIC>MOL_PROPERTY
VdW
SciTegic.value.DoubleValue
-22.660

@<SCITEGIC>MOL_PROPERTY
VdW6
SciTegic.value.DoubleValue
-182.419

@<SCITEGIC>MOL_PROPERTY
VdW12
SciTegic.value.DoubleValue
159.759

@<SCITEGIC>MOL_PROPERTY
Bond
SciTegic.value.DoubleValue
4.820

@<SCITEGIC>MOL_PROPERTY
Angle
SciTegic.value.DoubleValue
15.282

@<SCITEGIC>MOL_PROPERTY
Pdih
SciTegic.value.DoubleValue
142.084

@<SCITEGIC>MOL_PROPERTY
Idih
SciTegic.value.DoubleValue
0.000

@<SCITEGIC>MOL_PROPERTY
Tether
SciTegic.value.DoubleValue
0.000

