@<TRIPOS>MOLECULE
CD_guest-3_fast_vm2_rndm.mol2 : feprocess host+ligand conformer 1
         155         160           2
SMALL
USER_CHARGES
 
@<TRIPOS>ATOM
       1    C1      16.387105   15.325380   21.827396 C.3        1 MOL1         0.2972
       2    H1      15.340090   15.185588   22.124639 H          1 MOL1         0.0751
       3    O1      16.605262   16.627019   21.245416 O.3        1 MOL1        -0.3740
       4    C2      17.323665   15.155455   23.051667 C.3        1 MOL1         0.1003
       5    H2      17.177922   14.135174   23.429892 H          1 MOL1         0.0783
       6    O2      17.014032   16.091482   24.095974 O.3        1 MOL1        -0.5519
       7    H3      16.088055   16.398334   23.944990 H          1 MOL1         0.3769
       8    C3      18.802914   15.307195   22.632431 C.3        1 MOL1         0.1053
       9    H4      18.957914   16.341651   22.304327 H          1 MOL1         0.0783
      10    O3      19.632558   15.031344   23.764310 O.3        1 MOL1        -0.5519
      11    H5      19.203829   15.520928   24.502397 H          1 MOL1         0.3769
      12    C4      19.154202   14.371181   21.448997 C.3        1 MOL1         0.1018
      13    H6      19.225215   13.341108   21.822664 H          1 MOL1         0.0783
      14    C5      18.100588   14.447033   20.308209 C.3        1 MOL1         0.1043
      15    H7      18.204439   15.421752   19.813638 H          1 MOL1         0.0783
      16    O4      16.761142   14.330862   20.850889 O.3        1 MOL1        -0.3740
      17    C6      18.285222   13.359049   19.223173 C.3        1 MOL1         0.0138
      18    H8      19.186031   13.597071   18.641399 H          1 MOL1         0.0794
      19    H9      17.431016   13.403159   18.534309 H          1 MOL1         0.0794
      20    O5      18.404231   12.046614   19.786785 O.3        1 MOL1        -0.5486
      21    H10     18.433188   11.404664   19.044036 H          1 MOL1         0.3769
      22    C7      14.637415   20.276910   20.982649 C.3        1 MOL1         0.2972
      23    H11     13.933221   21.096150   20.792576 H          1 MOL1         0.0751
      24    O6      15.933215   20.757781   21.385042 O.3        1 MOL1        -0.3740
      25    C8      14.108874   19.357082   22.109399 C.3        1 MOL1         0.1003
      26    H12     13.148767   18.944936   21.772424 H          1 MOL1         0.0783
      27    O7      13.902837   20.098149   23.322737 O.3        1 MOL1        -0.5519
      28    H13     14.674864   20.709174   23.433431 H          1 MOL1         0.3769
      29    C9      15.075435   18.172619   22.357253 C.3        1 MOL1         0.1053
      30    H14     16.002957   18.575609   22.786421 H          1 MOL1         0.0783
      31    O8      14.460772   17.275541   23.288495 O.3        1 MOL1        -0.5519
      32    H15     14.033814   17.860255   23.955816 H          1 MOL1         0.3769
      33    C10     15.434655   17.441618   21.030879 C.3        1 MOL1         0.1018
      34    H16     14.582613   16.834379   20.697250 H          1 MOL1         0.0783
      35    C11     15.812597   18.433876   19.899856 C.3        1 MOL1         0.1043
      36    H17     16.787422   18.877614   20.134187 H          1 MOL1         0.0783
      37    O9      14.804446   19.468742   19.800567 O.3        1 MOL1        -0.3740
      38    C12     15.920636   17.743300   18.525396 C.3        1 MOL1         0.0138
      39    H18     14.931862   17.371827   18.224552 H          1 MOL1         0.0794
      40    H19     16.591356   16.877791   18.607259 H          1 MOL1         0.0794
      41    O10     16.429865   18.665579   17.559809 O.3        1 MOL1        -0.5486
      42    H20     15.784497   19.405914   17.530280 H          1 MOL1         0.3769
      43    C13     18.349894   24.080465   21.629198 C.3        1 MOL1         0.2972
      44    H21     18.783730   25.087736   21.672314 H          1 MOL1         0.0751
      45    O11     19.366221   23.058844   21.623993 O.3        1 MOL1        -0.3740
      46    C14     17.444233   23.851249   22.862074 C.3        1 MOL1         0.1003
      47    H22     16.639070   24.596739   22.829212 H          1 MOL1         0.0783
      48    O12     18.196363   24.012833   24.075475 O.3        1 MOL1        -0.5519
      49    H23     19.144162   23.831842   23.855591 H          1 MOL1         0.3769
      50    C15     16.803817   22.447161   22.809129 C.3        1 MOL1         0.1053
      51    H24     17.606575   21.711694   22.931818 H          1 MOL1         0.0783
      52    O13     15.858853   22.306139   23.874099 O.3        1 MOL1        -0.5519
      53    H25     16.312206   22.674533   24.665127 H          1 MOL1         0.3769
      54    C16     16.113019   22.182996   21.449447 C.3        1 MOL1         0.1018
      55    H26     15.160498   22.728076   21.430281 H          1 MOL1         0.0783
      56    C17     16.995276   22.593776   20.236203 C.3        1 MOL1         0.1043
      57    H27     17.814420   21.868092   20.162774 H          1 MOL1         0.0783
      58    O14     17.552087   23.917782   20.438887 O.3        1 MOL1        -0.3740
      59    C18     16.255799   22.577940   18.876524 C.3        1 MOL1         0.0138
      60    H28     16.036173   21.537389   18.604093 H          1 MOL1         0.0794
      61    H29     16.934999   22.974020   18.109908 H          1 MOL1         0.0794
      62    O15     15.046653   23.346250   18.898018 O.3        1 MOL1        -0.5486
      63    H30     14.346225   22.798689   19.308540 H          1 MOL1         0.3769
      64    C19     23.452149   22.593497   20.873860 C.3        1 MOL1         0.2972
      65    H31     24.494831   22.761201   20.575232 H          1 MOL1         0.0751
      66    O16     23.205978   21.200112   21.154033 O.3        1 MOL1        -0.3740
      67    C20     23.078286   23.457906   22.112823 C.3        1 MOL1         0.1003
      68    H32     23.209506   24.507793   21.820124 H          1 MOL1         0.0783
      69    O17     23.922019   23.188768   23.242270 O.3        1 MOL1        -0.5519
      70    H33     23.760376   22.247817   23.505844 H          1 MOL1         0.3769
      71    C21     21.591120   23.255699   22.490219 C.3        1 MOL1         0.1053
      72    H34     21.454160   22.216127   22.819142 H          1 MOL1         0.0783
      73    O18     21.232219   24.152848   23.546781 O.3        1 MOL1        -0.5519
      74    H35     21.974225   24.103619   24.189816 H          1 MOL1         0.3769
      75    C22     20.684869   23.503554   21.261996 C.3        1 MOL1         0.1018
      76    H36     20.710629   24.575195   21.024068 H          1 MOL1         0.0783
      77    C23     21.156705   22.699033   20.021032 C.3        1 MOL1         0.1043
      78    H37     21.022091   21.632748   20.232964 H          1 MOL1         0.0783
      79    O19     22.563304   22.971142   19.797039 O.3        1 MOL1        -0.3740
      80    C24     20.377017   22.997841   18.714147 C.3        1 MOL1         0.0138
      81    H38     19.502533   22.337518   18.670109 H          1 MOL1         0.0794
      82    H39     21.015367   22.736217   17.859740 H          1 MOL1         0.0794
      83    O20     19.948161   24.359998   18.608643 O.3        1 MOL1        -0.5486
      84    H40     19.133396   24.447872   19.155822 H          1 MOL1         0.3769
      85    C25     24.946500   17.582116   22.036290 C.3        1 MOL1         0.2972
      86    H41     25.579165   16.731428   22.320770 H          1 MOL1         0.0751
      87    O21     23.735450   17.155424   21.380319 O.3        1 MOL1        -0.3740
      88    C26     24.577125   18.425176   23.283285 C.3        1 MOL1         0.1003
      89    H42     25.512285   18.825660   23.696085 H          1 MOL1         0.0783
      90    O22     23.915150   17.639982   24.287994 O.3        1 MOL1        -0.5519
      91    H43     23.931092   16.699494   23.985348 H          1 MOL1         0.3769
      92    C27     23.679538   19.613213   22.878934 C.3        1 MOL1         0.1053
      93    H44     22.726451   19.196816   22.533856 H          1 MOL1         0.0783
      94    O23     23.455907   20.441701   24.023723 O.3        1 MOL1        -0.5519
      95    H45     23.269027   19.806315   24.751383 H          1 MOL1         0.3769
      96    C28     24.292727   20.439401   21.719647 C.3        1 MOL1         0.1018
      97    H46     25.082834   21.083481   22.127233 H          1 MOL1         0.0783
      98    C29     24.870488   19.551093   20.579022 C.3        1 MOL1         0.1043
      99    H47     24.025721   19.141052   20.010497 H          1 MOL1         0.0783
     100    O24     25.648190   18.454183   21.125873 O.3        1 MOL1        -0.3740
     101    C30     25.755624   20.327486   19.574851 C.3        1 MOL1         0.0138
     102    H48     25.108842   20.977468   18.970230 H          1 MOL1         0.0794
     103    H49     26.223443   19.606670   18.890892 H          1 MOL1         0.0794
     104    O25     26.757625   21.114105   20.230953 O.3        1 MOL1        -0.5486
     105    H50     27.331248   21.506306   19.536816 H          1 MOL1         0.3769
     106    C31     21.419863   13.839838   20.653939 C.3        1 MOL1         0.2972
     107    H51     20.977945   12.876283   20.369586 H          1 MOL1         0.0751
     108    O26     20.402986   14.836607   20.899136 O.3        1 MOL1        -0.3740
     109    C32     22.332226   13.693801   21.901000 C.3        1 MOL1         0.1003
     110    H52     23.160947   13.033012   21.614695 H          1 MOL1         0.0783
     111    O27     21.642637   13.108955   23.015227 O.3        1 MOL1        -0.5519
     112    H53     20.937913   13.750914   23.284252 H          1 MOL1         0.3769
     113    C33     22.933008   15.064290   22.294600 C.3        1 MOL1         0.1053
     114    H54     22.112957   15.711431   22.636334 H          1 MOL1         0.0783
     115    O28     23.874719   14.871527   23.355251 O.3        1 MOL1        -0.5519
     116    H55     23.456280   14.208302   23.950189 H          1 MOL1         0.3769
     117    C34     23.620516   15.751973   21.083994 C.3        1 MOL1         0.1018
     118    H56     24.601839   15.290123   20.917183 H          1 MOL1         0.0783
     119    C35     22.786528   15.665212   19.775263 C.3        1 MOL1         0.1043
     120    H57     21.946687   16.363250   19.864415 H          1 MOL1         0.0783
     121    O29     22.262326   14.328047   19.589200 O.3        1 MOL1        -0.3740
     122    C36     23.574766   16.076568   18.506972 C.3        1 MOL1         0.0138
     123    H58     23.736374   17.162487   18.531640 H          1 MOL1         0.0794
     124    H59     22.953234   15.861633   17.627608 H          1 MOL1         0.0794
     125    O30     24.834393   15.403656   18.392304 O.3        1 MOL1        -0.5486
     126    H60     25.454100   15.822223   19.027451 H          1 MOL1         0.3769
     127    C1      19.506817   19.049488   25.886788 C.3        1 MOL1        -0.2427
     128    H1      20.337998   19.748258   26.048181 H          1 MOL1         0.0958
     129    H2      18.769780   19.209021   26.684183 H          1 MOL1         0.0958
     130    H3      19.894881   18.027202   25.984872 H          1 MOL1         0.0958
     131    C2      18.864283   19.265240   24.501302 C.3        1 MOL1        -0.1412
     132    H4      18.457305   20.282924   24.445772 H          1 MOL1         0.0947
     133    H5      18.017398   18.576575   24.381546 H          1 MOL1         0.0947
     134    C3      19.885779   19.043368   23.366286 C.3        1 MOL1        -0.1437
     135    H6      20.706115   19.764447   23.476365 H          1 MOL1         0.0947
     136    H7      20.326471   18.041271   23.464013 H          1 MOL1         0.0947
     137    C4      19.250438   19.197418   21.967110 C.3        1 MOL1        -0.1437
     138    H8      18.897227   20.227928   21.838045 H          1 MOL1         0.0947
     139    H9      18.370897   18.546913   21.887604 H          1 MOL1         0.0947
     140    C5      20.255578   18.851740   20.848036 C.3        1 MOL1        -0.1437
     141    H10     21.143025   19.486005   20.956765 H          1 MOL1         0.0947
     142    H11     20.594400   17.814066   20.966883 H          1 MOL1         0.0947
     143    C6      19.652404   19.046132   19.439594 C.3        1 MOL1        -0.1437
     144    H12     19.175345   20.032377   19.376449 H          1 MOL1         0.0947
     145    H13     18.864829   18.299027   19.276712 H          1 MOL1         0.0947
     146    C7      20.728375   18.925599   18.336346 C.3        1 MOL1        -0.1477
     147    H14     21.567443   19.595679   18.568136 H          1 MOL1         0.0947
     148    H15     21.133716   17.906906   18.321105 H          1 MOL1         0.0947
     149    C8      20.195822   19.284494   16.936506 C.3        1 MOL1         0.0145
     150    H16     21.017763   19.236758   16.217183 H          1 MOL1         0.0921
     151    H17     19.803689   20.304868   16.938908 H          1 MOL1         0.0921
     152    N1      19.100280   18.363574   16.438667 N.4        1 MOL1        -0.5969
     153    H18     19.385506   17.380318   16.456920 H          1 MOL1         0.3603
     154    H19     18.830616   18.583152   15.474429 H          1 MOL1         0.3603
     155    H20     18.237209   18.446054   17.002619 H          1 MOL1         0.3603
@<TRIPOS>BOND
    1     1     2    1
    2     1     3    1
    3     1     4    1
    4     4     5    1
    5     4     6    1
    6     6     7    1
    7     4     8    1
    8     8     9    1
    9     8    10    1
   10    10    11    1
   11     8    12    1
   12    12    13    1
   13    12    14    1
   14    14    15    1
   15     1    16    1
   16    14    16    1
   17    14    17    1
   18    17    18    1
   19    17    19    1
   20    17    20    1
   21    20    21    1
   22    22    23    1
   23    22    24    1
   24    22    25    1
   25    25    26    1
   26    25    27    1
   27    27    28    1
   28    25    29    1
   29    29    30    1
   30    29    31    1
   31    31    32    1
   32     3    33    1
   33    29    33    1
   34    33    34    1
   35    33    35    1
   36    35    36    1
   37    22    37    1
   38    35    37    1
   39    35    38    1
   40    38    39    1
   41    38    40    1
   42    38    41    1
   43    41    42    1
   44    43    44    1
   45    43    45    1
   46    43    46    1
   47    46    47    1
   48    46    48    1
   49    48    49    1
   50    46    50    1
   51    50    51    1
   52    50    52    1
   53    52    53    1
   54    24    54    1
   55    50    54    1
   56    54    55    1
   57    54    56    1
   58    56    57    1
   59    43    58    1
   60    56    58    1
   61    56    59    1
   62    59    60    1
   63    59    61    1
   64    59    62    1
   65    62    63    1
   66    64    65    1
   67    64    66    1
   68    64    67    1
   69    67    68    1
   70    67    69    1
   71    69    70    1
   72    67    71    1
   73    71    72    1
   74    71    73    1
   75    73    74    1
   76    45    75    1
   77    71    75    1
   78    75    76    1
   79    75    77    1
   80    77    78    1
   81    64    79    1
   82    77    79    1
   83    77    80    1
   84    80    81    1
   85    80    82    1
   86    80    83    1
   87    83    84    1
   88    85    86    1
   89    85    87    1
   90    85    88    1
   91    88    89    1
   92    88    90    1
   93    90    91    1
   94    88    92    1
   95    92    93    1
   96    92    94    1
   97    94    95    1
   98    66    96    1
   99    92    96    1
  100    96    97    1
  101    96    98    1
  102    98    99    1
  103    85   100    1
  104    98   100    1
  105    98   101    1
  106   101   102    1
  107   101   103    1
  108   101   104    1
  109   104   105    1
  110   106   107    1
  111    12   108    1
  112   106   108    1
  113   106   109    1
  114   109   110    1
  115   109   111    1
  116   111   112    1
  117   109   113    1
  118   113   114    1
  119   113   115    1
  120   115   116    1
  121    87   117    1
  122   113   117    1
  123   117   118    1
  124   117   119    1
  125   119   120    1
  126   106   121    1
  127   119   121    1
  128   119   122    1
  129   122   123    1
  130   122   124    1
  131   122   125    1
  132   125   126    1
  133   127   128    1
  134   127   129    1
  135   127   130    1
  136   127   131    1
  137   131   132    1
  138   131   133    1
  139   131   134    1
  140   134   135    1
  141   134   136    1
  142   134   137    1
  143   137   138    1
  144   137   139    1
  145   137   140    1
  146   140   141    1
  147   140   142    1
  148   140   143    1
  149   143   144    1
  150   143   145    1
  151   143   146    1
  152   146   147    1
  153   146   148    1
  154   146   149    1
  155   149   150    1
  156   149   151    1
  157   149   152    1
  158   152   153    1
  159   152   154    1
  160   152   155    1
@<TRIPOS>SUBSTRUCTURE
       1 MOL1            1 RESIDUE      1      MOL     
       2 MOL1          155 RESIDUE      1      MOL     
@<SCITEGIC>MOL_PROPERTY
feprocess Rank
SciTegic.value.IntegerValue
1

@<SCITEGIC>MOL_PROPERTY
Conf_Id
SciTegic.value.IntegerValue
744

@<SCITEGIC>MOL_PROPERTY
Probability
SciTegic.value.DoubleValue
43.46

@<SCITEGIC>MOL_PROPERTY
G
SciTegic.value.DoubleValue
583.810

@<SCITEGIC>MOL_PROPERTY
E
SciTegic.value.DoubleValue
376.080

@<SCITEGIC>MOL_PROPERTY
-TS
SciTegic.value.DoubleValue
207.730

@<SCITEGIC>MOL_PROPERTY
U+W
SciTegic.value.DoubleValue
239.261

@<SCITEGIC>MOL_PROPERTY
U
SciTegic.value.DoubleValue
320.213

@<SCITEGIC>MOL_PROPERTY
W
SciTegic.value.DoubleValue
-80.952

@<SCITEGIC>MOL_PROPERTY
W(PB)
SciTegic.value.DoubleValue
-87.096

@<SCITEGIC>MOL_PROPERTY
W(SA)
SciTegic.value.DoubleValue
6.144

@<SCITEGIC>MOL_PROPERTY
Valence
SciTegic.value.DoubleValue
148.047

@<SCITEGIC>MOL_PROPERTY
Coulomb
SciTegic.value.DoubleValue
199.755

@<SCITEGIC>MOL_PROPERTY
VdW
SciTegic.value.DoubleValue
-27.589

@<SCITEGIC>MOL_PROPERTY
VdW6
SciTegic.value.DoubleValue
-184.295

@<SCITEGIC>MOL_PROPERTY
VdW12
SciTegic.value.DoubleValue
156.705

@<SCITEGIC>MOL_PROPERTY
Bond
SciTegic.value.DoubleValue
4.483

@<SCITEGIC>MOL_PROPERTY
Angle
SciTegic.value.DoubleValue
11.447

@<SCITEGIC>MOL_PROPERTY
Pdih
SciTegic.value.DoubleValue
132.117

@<SCITEGIC>MOL_PROPERTY
Idih
SciTegic.value.DoubleValue
0.000

@<SCITEGIC>MOL_PROPERTY
Tether
SciTegic.value.DoubleValue
0.000

