@<TRIPOS>MOLECULE
CD_guest-2_fast_vm2_rndm.mol2 : feprocess host+ligand conformer 1
         149         154           2
SMALL
USER_CHARGES
 
@<TRIPOS>ATOM
       1    C1      16.204832   15.365182   21.677926 C.3        1 MOL1         0.2972
       2    H1      15.122580   15.267449   21.832236 H          1 MOL1         0.0751
       3    O1      16.542777   16.610823   21.033851 O.3        1 MOL1        -0.3740
       4    C2      16.954517   15.275525   23.031595 C.3        1 MOL1         0.1003
       5    H2      16.753711   14.278884   23.446117 H          1 MOL1         0.0783
       6    O2      16.496813   16.272120   23.962153 O.3        1 MOL1        -0.5519
       7    H3      15.646722   16.625028   23.598964 H          1 MOL1         0.3769
       8    C3      18.478441   15.407810   22.811068 C.3        1 MOL1         0.1053
       9    H4      18.678862   16.423214   22.451347 H          1 MOL1         0.0783
      10    O3      19.146214   15.196552   24.057302 O.3        1 MOL1        -0.5519
      11    H5      18.566962   15.632682   24.719042 H          1 MOL1         0.3769
      12    C4      18.992543   14.408092   21.744483 C.3        1 MOL1         0.1018
      13    H6      19.045647   13.411603   22.203133 H          1 MOL1         0.0783
      14    C5      18.091039   14.361535   20.476513 C.3        1 MOL1         0.1043
      15    H7      18.263423   15.282812   19.904854 H          1 MOL1         0.0783
      16    O4      16.690139   14.291209   20.846112 O.3        1 MOL1        -0.3740
      17    C6      18.408771   13.174934   19.535104 C.3        1 MOL1         0.0138
      18    H8      19.377931   13.362282   19.053148 H          1 MOL1         0.0794
      19    H9      17.650509   13.145204   18.741176 H          1 MOL1         0.0794
      20    O5      18.447773   11.924403   20.234248 O.3        1 MOL1        -0.5486
      21    H10     18.571567   11.214020   19.567341 H          1 MOL1         0.3769
      22    C7      14.868989   20.287698   20.156785 C.3        1 MOL1         0.2972
      23    H11     14.274874   21.139004   19.800462 H          1 MOL1         0.0751
      24    O6      16.171478   20.710186   20.615837 O.3        1 MOL1        -0.3740
      25    C8      14.125113   19.510575   21.277054 C.3        1 MOL1         0.1003
      26    H12     13.212135   19.100731   20.825476 H          1 MOL1         0.0783
      27    O7      13.750620   20.354291   22.375553 O.3        1 MOL1        -0.5519
      28    H13     14.591289   20.645149   22.810491 H          1 MOL1         0.3769
      29    C9      14.980120   18.320216   21.774291 C.3        1 MOL1         0.1053
      30    H14     15.876168   18.722880   22.266170 H          1 MOL1         0.0783
      31    O8      14.209176   17.560429   22.711977 O.3        1 MOL1        -0.5519
      32    H15     13.723385   18.231448   23.243729 H          1 MOL1         0.3769
      33    C10     15.439338   17.424384   20.590913 C.3        1 MOL1         0.1018
      34    H16     14.594043   16.808699   20.258285 H          1 MOL1         0.0783
      35    C11     15.974507   18.247293   19.385688 C.3        1 MOL1         0.1043
      36    H17     16.954525   18.653212   19.662506 H          1 MOL1         0.0783
      37    O9      15.078888   19.346297   19.082712 O.3        1 MOL1        -0.3740
      38    C12     16.189138   17.405762   18.103395 C.3        1 MOL1         0.0138
      39    H18     17.066348   16.761672   18.250916 H          1 MOL1         0.0794
      40    H19     16.424474   18.088037   17.275822 H          1 MOL1         0.0794
      41    O10     15.050945   16.602327   17.768650 O.3        1 MOL1        -0.5486
      42    H20     15.029331   15.845317   18.392699 H          1 MOL1         0.3769
      43    C13     18.417504   23.825265   22.111656 C.3        1 MOL1         0.2972
      44    H21     18.802159   24.759564   22.540318 H          1 MOL1         0.0751
      45    O11     19.478798   23.011012   21.573318 O.3        1 MOL1        -0.3740
      46    C14     17.650933   23.016317   23.188408 C.3        1 MOL1         0.1003
      47    H22     16.815171   23.642697   23.526825 H          1 MOL1         0.0783
      48    O12     18.484978   22.694706   24.313339 O.3        1 MOL1        -0.5519
      49    H23     19.274318   23.286917   24.269839 H          1 MOL1         0.3769
      50    C15     17.068716   21.717279   22.591123 C.3        1 MOL1         0.1053
      51    H24     17.907791   21.059928   22.334200 H          1 MOL1         0.0783
      52    O13     16.251800   21.089271   23.583688 O.3        1 MOL1        -0.5519
      53    H25     16.755515   21.208912   24.419628 H          1 MOL1         0.3769
      54    C16     16.259986   21.978551   21.295755 C.3        1 MOL1         0.1018
      55    H26     15.273267   22.376658   21.566047 H          1 MOL1         0.0783
      56    C17     16.978899   22.959208   20.324861 C.3        1 MOL1         0.1043
      57    H27     17.819299   22.424665   19.864501 H          1 MOL1         0.0783
      58    O14     17.491432   24.110605   21.042764 O.3        1 MOL1        -0.3740
      59    C18     16.074353   23.459870   19.173488 C.3        1 MOL1         0.0138
      60    H28     15.895345   22.624348   18.483318 H          1 MOL1         0.0794
      61    H29     16.615913   24.234543   18.614198 H          1 MOL1         0.0794
      62    O15     14.823640   23.971726   19.650286 O.3        1 MOL1        -0.5486
      63    H30     14.340007   24.342592   18.880028 H          1 MOL1         0.3769
      64    C19     23.630334   22.846778   21.610601 C.3        1 MOL1         0.2972
      65    H31     24.703680   23.066264   21.545732 H          1 MOL1         0.0751
      66    O16     23.384625   21.442170   21.814795 O.3        1 MOL1        -0.3740
      67    C20     23.015187   23.603709   22.810928 C.3        1 MOL1         0.1003
      68    H32     23.176796   24.676686   22.643870 H          1 MOL1         0.0783
      69    O17     23.662087   23.208243   24.031256 O.3        1 MOL1        -0.5519
      70    H33     23.932769   22.264020   23.918032 H          1 MOL1         0.3769
      71    C21     21.490557   23.356702   22.906189 C.3        1 MOL1         0.1053
      72    H34     21.334772   22.306475   23.185308 H          1 MOL1         0.0783
      73    O18     20.953042   24.211085   23.921216 O.3        1 MOL1        -0.5519
      74    H35     21.606573   24.169627   24.656326 H          1 MOL1         0.3769
      75    C22     20.789243   23.610407   21.542878 C.3        1 MOL1         0.1018
      76    H36     20.732819   24.691743   21.363528 H          1 MOL1         0.0783
      77    C23     21.537018   22.938299   20.359501 C.3        1 MOL1         0.1043
      78    H37     21.415693   21.852726   20.457974 H          1 MOL1         0.0783
      79    O19     22.948422   23.262319   20.409028 O.3        1 MOL1        -0.3740
      80    C24     20.981169   23.330403   18.967438 C.3        1 MOL1         0.0138
      81    H38     20.025985   22.811335   18.813240 H          1 MOL1         0.0794
      82    H39     21.674721   22.966506   18.197980 H          1 MOL1         0.0794
      83    O20     20.788594   24.742372   18.824323 O.3        1 MOL1        -0.5486
      84    H40     19.999887   24.987555   19.354566 H          1 MOL1         0.3769
      85    C25     25.082598   17.702840   21.120034 C.3        1 MOL1         0.2972
      86    H41     25.754548   16.878524   20.848675 H          1 MOL1         0.0751
      87    O21     23.759959   17.233475   21.455154 O.3        1 MOL1        -0.3740
      88    C26     25.628075   18.467616   22.352792 C.3        1 MOL1         0.1003
      89    H42     26.615978   18.864696   22.085462 H          1 MOL1         0.0783
      90    O22     25.760633   17.591546   23.483907 O.3        1 MOL1        -0.5519
      91    H43     24.961807   17.005471   23.501068 H          1 MOL1         0.3769
      92    C27     24.708587   19.664035   22.699569 C.3        1 MOL1         0.1053
      93    H44     23.743102   19.266319   23.040432 H          1 MOL1         0.0783
      94    O23     25.302364   20.444541   23.742560 O.3        1 MOL1        -0.5519
      95    H45     25.611521   19.789714   24.407504 H          1 MOL1         0.3769
      96    C28     24.457855   20.552683   21.456317 C.3        1 MOL1         0.1018
      97    H46     25.386330   21.093674   21.231054 H          1 MOL1         0.0783
      98    C29     24.029829   19.717936   20.214733 C.3        1 MOL1         0.1043
      99    H47     23.039871   19.289345   20.405175 H          1 MOL1         0.0783
     100    O24     24.975402   18.639765   20.025915 O.3        1 MOL1        -0.3740
     101    C30     23.924192   20.511540   18.887293 C.3        1 MOL1         0.0138
     102    H48     22.913970   20.931332   18.811016 H          1 MOL1         0.0794
     103    H49     24.039036   19.808822   18.051212 H          1 MOL1         0.0794
     104    O25     24.887302   21.564736   18.777688 O.3        1 MOL1        -0.5486
     105    H50     24.492845   22.353463   19.215481 H          1 MOL1         0.3769
     106    C31     21.327808   13.880714   21.227217 C.3        1 MOL1         0.2972
     107    H51     20.909686   12.873814   21.100202 H          1 MOL1         0.0751
     108    O26     20.288804   14.878100   21.320266 O.3        1 MOL1        -0.3740
     109    C32     22.222461   13.957930   22.492763 C.3        1 MOL1         0.1003
     110    H52     23.057142   13.260689   22.343055 H          1 MOL1         0.0783
     111    O27     21.508310   13.577078   23.678335 O.3        1 MOL1        -0.5519
     112    H53     20.724427   14.177679   23.756710 H          1 MOL1         0.3769
     113    C33     22.812383   15.380156   22.643121 C.3        1 MOL1         0.1053
     114    H54     21.984312   16.077391   22.819714 H          1 MOL1         0.0783
     115    O28     23.718456   15.412116   23.750632 O.3        1 MOL1        -0.5519
     116    H55     23.263340   14.916933   24.467971 H          1 MOL1         0.3769
     117    C34     23.545722   15.813122   21.350762 C.3        1 MOL1         0.1018
     118    H56     24.490469   15.256487   21.294168 H          1 MOL1         0.0783
     119    C35     22.703390   15.553417   20.070026 C.3        1 MOL1         0.1043
     120    H57     21.877443   16.276289   20.048682 H          1 MOL1         0.0783
     121    O29     22.159001   14.210125   20.094504 O.3        1 MOL1        -0.3740
     122    C36     23.505823   15.726425   18.757895 C.3        1 MOL1         0.0138
     123    H58     23.705189   16.795688   18.608537 H          1 MOL1         0.0794
     124    H59     22.881278   15.392183   17.918701 H          1 MOL1         0.0794
     125    O30     24.741555   15.000164   18.779469 O.3        1 MOL1        -0.5486
     126    H60     25.173054   15.121632   17.905766 H          1 MOL1         0.3769
     127    N1      17.523526   17.948871   26.143496 N.4        1 MOL1        -0.5940
     128    H1      17.006796   18.826597   26.250727 H          1 MOL1         0.3649
     129    H2      17.503751   17.468106   27.048130 H          1 MOL1         0.3649
     130    H3      16.993077   17.365405   25.475811 H          1 MOL1         0.3649
     131    C1      18.935946   18.180267   25.650251 C.3        1 MOL1         0.0207
     132    H4      19.425782   17.206398   25.573590 H          1 MOL1         0.0950
     133    H5      19.471909   18.777005   26.393068 H          1 MOL1         0.0950
     134    C2      18.973755   18.884480   24.284639 C.3        1 MOL1        -0.1415
     135    H6      18.229608   18.426216   23.622939 H          1 MOL1         0.0976
     136    H7      18.685829   19.934697   24.412739 H          1 MOL1         0.0976
     137    C3      20.376498   18.801187   23.644055 C.3        1 MOL1        -0.1375
     138    H8      20.677711   17.750223   23.548558 H          1 MOL1         0.0976
     139    H9      21.104684   19.272578   24.318693 H          1 MOL1         0.0976
     140    C4      20.458450   19.491870   22.263422 C.3        1 MOL1        -0.1375
     141    H10     20.109735   20.527287   22.353400 H          1 MOL1         0.0976
     142    H11     21.512426   19.547305   21.972721 H          1 MOL1         0.0976
     143    C5      19.668818   18.762801   21.150551 C.3        1 MOL1        -0.1350
     144    H12     18.607605   18.688726   21.421170 H          1 MOL1         0.0976
     145    H13     20.044408   17.735650   21.044920 H          1 MOL1         0.0976
     146    C6      19.783794   19.492496   19.796407 C.3        1 MOL1        -0.2365
     147    H14     20.830009   19.580255   19.480632 H          1 MOL1         0.0987
     148    H15     19.353821   20.500185   19.860396 H          1 MOL1         0.0987
     149    H16     19.243457   18.945025   19.013970 H          1 MOL1         0.0987
@<TRIPOS>BOND
    1     1     2    1
    2     1     3    1
    3     1     4    1
    4     4     5    1
    5     4     6    1
    6     6     7    1
    7     4     8    1
    8     8     9    1
    9     8    10    1
   10    10    11    1
   11     8    12    1
   12    12    13    1
   13    12    14    1
   14    14    15    1
   15     1    16    1
   16    14    16    1
   17    14    17    1
   18    17    18    1
   19    17    19    1
   20    17    20    1
   21    20    21    1
   22    22    23    1
   23    22    24    1
   24    22    25    1
   25    25    26    1
   26    25    27    1
   27    27    28    1
   28    25    29    1
   29    29    30    1
   30    29    31    1
   31    31    32    1
   32     3    33    1
   33    29    33    1
   34    33    34    1
   35    33    35    1
   36    35    36    1
   37    22    37    1
   38    35    37    1
   39    35    38    1
   40    38    39    1
   41    38    40    1
   42    38    41    1
   43    41    42    1
   44    43    44    1
   45    43    45    1
   46    43    46    1
   47    46    47    1
   48    46    48    1
   49    48    49    1
   50    46    50    1
   51    50    51    1
   52    50    52    1
   53    52    53    1
   54    24    54    1
   55    50    54    1
   56    54    55    1
   57    54    56    1
   58    56    57    1
   59    43    58    1
   60    56    58    1
   61    56    59    1
   62    59    60    1
   63    59    61    1
   64    59    62    1
   65    62    63    1
   66    64    65    1
   67    64    66    1
   68    64    67    1
   69    67    68    1
   70    67    69    1
   71    69    70    1
   72    67    71    1
   73    71    72    1
   74    71    73    1
   75    73    74    1
   76    45    75    1
   77    71    75    1
   78    75    76    1
   79    75    77    1
   80    77    78    1
   81    64    79    1
   82    77    79    1
   83    77    80    1
   84    80    81    1
   85    80    82    1
   86    80    83    1
   87    83    84    1
   88    85    86    1
   89    85    87    1
   90    85    88    1
   91    88    89    1
   92    88    90    1
   93    90    91    1
   94    88    92    1
   95    92    93    1
   96    92    94    1
   97    94    95    1
   98    66    96    1
   99    92    96    1
  100    96    97    1
  101    96    98    1
  102    98    99    1
  103    85   100    1
  104    98   100    1
  105    98   101    1
  106   101   102    1
  107   101   103    1
  108   101   104    1
  109   104   105    1
  110   106   107    1
  111    12   108    1
  112   106   108    1
  113   106   109    1
  114   109   110    1
  115   109   111    1
  116   111   112    1
  117   109   113    1
  118   113   114    1
  119   113   115    1
  120   115   116    1
  121    87   117    1
  122   113   117    1
  123   117   118    1
  124   117   119    1
  125   119   120    1
  126   106   121    1
  127   119   121    1
  128   119   122    1
  129   122   123    1
  130   122   124    1
  131   122   125    1
  132   125   126    1
  133   127   128    1
  134   127   129    1
  135   127   130    1
  136   127   131    1
  137   131   132    1
  138   131   133    1
  139   131   134    1
  140   134   135    1
  141   134   136    1
  142   134   137    1
  143   137   138    1
  144   137   139    1
  145   137   140    1
  146   140   141    1
  147   140   142    1
  148   140   143    1
  149   143   144    1
  150   143   145    1
  151   143   146    1
  152   146   147    1
  153   146   148    1
  154   146   149    1
@<TRIPOS>SUBSTRUCTURE
       1 MOL1            1 RESIDUE      1      MOL     
       2 MOL1          149 RESIDUE      1      MOL     
@<SCITEGIC>MOL_PROPERTY
feprocess Rank
SciTegic.value.IntegerValue
1

@<SCITEGIC>MOL_PROPERTY
Conf_Id
SciTegic.value.IntegerValue
41

@<SCITEGIC>MOL_PROPERTY
Probability
SciTegic.value.DoubleValue
19.71

@<SCITEGIC>MOL_PROPERTY
G
SciTegic.value.DoubleValue
568.108

@<SCITEGIC>MOL_PROPERTY
E
SciTegic.value.DoubleValue
369.359

@<SCITEGIC>MOL_PROPERTY
-TS
SciTegic.value.DoubleValue
198.749

@<SCITEGIC>MOL_PROPERTY
U+W
SciTegic.value.DoubleValue
237.906

@<SCITEGIC>MOL_PROPERTY
U
SciTegic.value.DoubleValue
328.057

@<SCITEGIC>MOL_PROPERTY
W
SciTegic.value.DoubleValue
-90.151

@<SCITEGIC>MOL_PROPERTY
W(PB)
SciTegic.value.DoubleValue
-96.309

@<SCITEGIC>MOL_PROPERTY
W(SA)
SciTegic.value.DoubleValue
6.158

@<SCITEGIC>MOL_PROPERTY
Valence
SciTegic.value.DoubleValue
147.060

@<SCITEGIC>MOL_PROPERTY
Coulomb
SciTegic.value.DoubleValue
205.775

@<SCITEGIC>MOL_PROPERTY
VdW
SciTegic.value.DoubleValue
-24.779

@<SCITEGIC>MOL_PROPERTY
VdW6
SciTegic.value.DoubleValue
-179.318

@<SCITEGIC>MOL_PROPERTY
VdW12
SciTegic.value.DoubleValue
154.539

@<SCITEGIC>MOL_PROPERTY
Bond
SciTegic.value.DoubleValue
4.575

@<SCITEGIC>MOL_PROPERTY
Angle
SciTegic.value.DoubleValue
11.528

@<SCITEGIC>MOL_PROPERTY
Pdih
SciTegic.value.DoubleValue
130.957

@<SCITEGIC>MOL_PROPERTY
Idih
SciTegic.value.DoubleValue
0.000

@<SCITEGIC>MOL_PROPERTY
Tether
SciTegic.value.DoubleValue
0.000

@<TRIPOS>MOLECULE
CD_guest-2_fast_vm2_rndm.mol2 : feprocess host+ligand conformer 2
         149         154           2
SMALL
USER_CHARGES
 
@<TRIPOS>ATOM
       1    C1      16.245755   15.303045   20.665538 C.3        1 MOL1         0.2972
       2    H1      15.220623   15.095051   20.332576 H          1 MOL1         0.0751
       3    O1      16.404540   16.672125   21.086165 O.3        1 MOL1        -0.3740
       4    C2      16.650443   14.382547   21.847617 C.3        1 MOL1         0.1003
       5    H2      16.607913   13.348379   21.481617 H          1 MOL1         0.0783
       6    O2      15.749922   14.516545   22.957622 O.3        1 MOL1        -0.5519
       7    H3      15.670948   15.482265   23.164844 H          1 MOL1         0.3769
       8    C3      18.108571   14.669406   22.287714 C.3        1 MOL1         0.1053
       9    H4      18.157372   15.693170   22.684150 H          1 MOL1         0.0783
      10    O3      18.480673   13.737064   23.308718 O.3        1 MOL1        -0.5519
      11    H5      17.684864   13.662072   23.883285 H          1 MOL1         0.3769
      12    C4      19.067102   14.570004   21.069944 C.3        1 MOL1         0.1018
      13    H6      19.152785   13.518253   20.767428 H          1 MOL1         0.0783
      14    C5      18.555835   15.402112   19.863943 C.3        1 MOL1         0.1043
      15    H7      18.616605   16.464601   20.129024 H          1 MOL1         0.0783
      16    O4      17.176026   15.061214   19.586913 O.3        1 MOL1        -0.3740
      17    C6      19.391217   15.207380   18.573893 C.3        1 MOL1         0.0138
      18    H8      20.323236   15.776836   18.675006 H          1 MOL1         0.0794
      19    H9      18.837752   15.638968   17.729465 H          1 MOL1         0.0794
      20    O5      19.700237   13.833501   18.311560 O.3        1 MOL1        -0.5486
      21    H10     20.361392   13.548104   18.978997 H          1 MOL1         0.3769
      22    C7      14.579451   20.292947   21.575966 C.3        1 MOL1         0.2972
      23    H11     13.930306   21.170176   21.693605 H          1 MOL1         0.0751
      24    O6      15.966284   20.659536   21.442781 O.3        1 MOL1        -0.3740
      25    C8      14.451017   19.369533   22.808203 C.3        1 MOL1         0.1003
      26    H12     13.417707   19.000677   22.846419 H          1 MOL1         0.0783
      27    O7      14.748291   20.088246   24.016453 O.3        1 MOL1        -0.5519
      28    H13     15.312982   20.861289   23.765558 H          1 MOL1         0.3769
      29    C9      15.393660   18.156221   22.659821 C.3        1 MOL1         0.1053
      30    H14     16.421323   18.531942   22.695776 H          1 MOL1         0.0783
      31    O8      15.178142   17.253233   23.747198 O.3        1 MOL1        -0.5519
      32    H15     15.109425   17.829454   24.541492 H          1 MOL1         0.3769
      33    C10     15.199311   17.430489   21.304389 C.3        1 MOL1         0.1018
      34    H16     14.310613   16.789441   21.375924 H          1 MOL1         0.0783
      35    C11     15.069641   18.404163   20.095367 C.3        1 MOL1         0.1043
      36    H17     16.074083   18.783031   19.867956 H          1 MOL1         0.0783
      37    O9      14.207546   19.529252   20.410545 O.3        1 MOL1        -0.3740
      38    C12     14.541368   17.723265   18.810514 C.3        1 MOL1         0.0138
      39    H18     15.318279   17.046419   18.429735 H          1 MOL1         0.0794
      40    H19     14.377152   18.494848   18.046320 H          1 MOL1         0.0794
      41    O10     13.332908   16.990714   19.047091 O.3        1 MOL1        -0.5486
      42    H20     13.017249   16.648508   18.182295 H          1 MOL1         0.3769
      43    C13     18.471820   23.905633   20.777321 C.3        1 MOL1         0.2972
      44    H21     18.892988   24.882973   20.509306 H          1 MOL1         0.0751
      45    O11     19.515841   22.930682   20.999962 O.3        1 MOL1        -0.3740
      46    C14     17.554972   24.017213   22.030825 C.3        1 MOL1         0.1003
      47    H22     16.736632   24.699573   21.766427 H          1 MOL1         0.0783
      48    O12     18.243913   24.549951   23.171301 O.3        1 MOL1        -0.5519
      49    H23     18.931135   23.883845   23.425948 H          1 MOL1         0.3769
      50    C15     16.931392   22.643706   22.373904 C.3        1 MOL1         0.1053
      51    H24     17.740307   21.966690   22.678309 H          1 MOL1         0.0783
      52    O13     15.993530   22.788525   23.445192 O.3        1 MOL1        -0.5519
      53    H25     16.432360   23.383688   24.093367 H          1 MOL1         0.3769
      54    C16     16.227543   22.037663   21.136797 C.3        1 MOL1         0.1018
      55    H26     15.307962   22.604681   20.940720 H          1 MOL1         0.0783
      56    C17     17.129089   22.069042   19.874839 C.3        1 MOL1         0.1043
      57    H27     17.962121   21.378794   20.042489 H          1 MOL1         0.0783
      58    O14     17.649854   23.409796   19.694929 O.3        1 MOL1        -0.3740
      59    C18     16.431394   21.611626   18.566893 C.3        1 MOL1         0.0138
      60    H28     16.572638   20.528793   18.459011 H          1 MOL1         0.0794
      61    H29     16.939235   22.084348   17.715643 H          1 MOL1         0.0794
      62    O15     15.031210   21.912165   18.533477 O.3        1 MOL1        -0.5486
      63    H30     14.579351   21.245176   19.100261 H          1 MOL1         0.3769
      64    C19     23.518518   22.507387   22.030952 C.3        1 MOL1         0.2972
      65    H31     24.547838   22.654257   22.382365 H          1 MOL1         0.0751
      66    O16     23.375397   21.265585   21.312424 O.3        1 MOL1        -0.3740
      67    C20     22.530860   22.525291   23.227661 C.3        1 MOL1         0.1003
      68    H32     22.631533   23.503952   23.714879 H          1 MOL1         0.0783
      69    O17     22.820030   21.490722   24.182053 O.3        1 MOL1        -0.5519
      70    H33     23.758118   21.216425   24.042007 H          1 MOL1         0.3769
      71    C21     21.074515   22.377186   22.738003 C.3        1 MOL1         0.1053
      72    H34     20.970351   21.370468   22.317965 H          1 MOL1         0.0783
      73    O18     20.193964   22.532126   23.854689 O.3        1 MOL1        -0.5519
      74    H35     20.606927   21.990665   24.564736 H          1 MOL1         0.3769
      75    C22     20.730764   23.397237   21.624908 C.3        1 MOL1         0.1018
      76    H36     20.609041   24.388881   22.079703 H          1 MOL1         0.0783
      77    C23     21.829269   23.458607   20.526450 C.3        1 MOL1         0.1043
      78    H37     21.783196   22.528333   19.945278 H          1 MOL1         0.0783
      79    O19     23.140857   23.575188   21.135928 O.3        1 MOL1        -0.3740
      80    C24     21.645950   24.629958   19.531794 C.3        1 MOL1         0.0138
      81    H38     20.781126   24.410592   18.891182 H          1 MOL1         0.0794
      82    H39     22.529524   24.678091   18.881278 H          1 MOL1         0.0794
      83    O20     21.449795   25.882735   20.199605 O.3        1 MOL1        -0.5486
      84    H40     21.429678   26.586133   19.514430 H          1 MOL1         0.3769
      85    C25     25.230241   17.632808   20.844831 C.3        1 MOL1         0.2972
      86    H41     25.861594   16.762060   20.625589 H          1 MOL1         0.0751
      87    O21     23.857171   17.250235   21.078899 O.3        1 MOL1        -0.3740
      88    C26     25.768899   18.433457   22.058597 C.3        1 MOL1         0.1003
      89    H42     26.745832   18.839731   21.765229 H          1 MOL1         0.0783
      90    O22     25.946766   17.607868   23.218357 O.3        1 MOL1        -0.5519
      91    H43     25.049358   17.282564   23.482081 H          1 MOL1         0.3769
      92    C27     24.834512   19.627534   22.371851 C.3        1 MOL1         0.1053
      93    H44     23.870022   19.225755   22.712867 H          1 MOL1         0.0783
      94    O23     25.426742   20.415229   23.410929 O.3        1 MOL1        -0.5519
      95    H45     25.815981   19.760960   24.035182 H          1 MOL1         0.3769
      96    C28     24.578653   20.497420   21.107517 C.3        1 MOL1         0.1018
      97    H46     25.446065   21.148053   20.939477 H          1 MOL1         0.0783
      98    C29     24.317264   19.657038   19.825584 C.3        1 MOL1         0.1043
      99    H47     23.300337   19.256536   19.893801 H          1 MOL1         0.0783
     100    O24     25.243129   18.547132   19.729396 O.3        1 MOL1        -0.3740
     101    C30     24.385383   20.482617   18.517113 C.3        1 MOL1         0.0138
     102    H48     23.521834   21.160592   18.484687 H          1 MOL1         0.0794
     103    H49     24.289387   19.793999   17.667215 H          1 MOL1         0.0794
     104    O25     25.597721   21.237194   18.400357 O.3        1 MOL1        -0.5486
     105    H50     25.527893   22.008664   19.002394 H          1 MOL1         0.3769
     106    C31     21.278662   14.193861   22.029684 C.3        1 MOL1         0.2972
     107    H51     20.786318   13.259953   22.329396 H          1 MOL1         0.0751
     108    O26     20.348717   15.117856   21.428963 O.3        1 MOL1        -0.3740
     109    C32     21.921539   14.875262   23.261081 C.3        1 MOL1         0.1003
     110    H52     22.666884   14.179154   23.667465 H          1 MOL1         0.0783
     111    O27     20.937378   15.161282   24.269181 O.3        1 MOL1        -0.5519
     112    H53     20.126438   14.646439   24.037753 H          1 MOL1         0.3769
     113    C33     22.645615   16.175792   22.846566 C.3        1 MOL1         0.1053
     114    H54     21.885524   16.892981   22.520180 H          1 MOL1         0.0783
     115    O28     23.336789   16.701485   23.982100 O.3        1 MOL1        -0.5519
     116    H55     22.687210   16.634856   24.718254 H          1 MOL1         0.3769
     117    C34     23.618927   15.953203   21.660313 C.3        1 MOL1         0.1018
     118    H56     24.540354   15.489699   22.037051 H          1 MOL1         0.0783
     119    C35     23.001110   15.081383   20.529127 C.3        1 MOL1         0.1043
     120    H57     22.266916   15.696655   19.993923 H          1 MOL1         0.0783
     121    O29     22.326626   13.921444   21.076927 O.3        1 MOL1        -0.3740
     122    C36     24.038487   14.601744   19.486001 C.3        1 MOL1         0.0138
     123    H58     24.362391   15.468122   18.893477 H          1 MOL1         0.0794
     124    H59     23.546066   13.901544   18.797917 H          1 MOL1         0.0794
     125    O30     25.175251   13.981590   20.099766 O.3        1 MOL1        -0.5486
     126    H60     25.749192   13.634253   19.382339 H          1 MOL1         0.3769
     127    N1      20.438810   19.167719   16.922039 N.4        1 MOL1        -0.5940
     128    H1      19.549153   18.717310   16.686107 H          1 MOL1         0.3649
     129    H2      21.116828   18.878016   16.209127 H          1 MOL1         0.3649
     130    H3      20.304885   20.177891   16.812353 H          1 MOL1         0.3649
     131    C1      20.903462   18.807779   18.318061 C.3        1 MOL1         0.0207
     132    H4      21.864717   19.297316   18.485410 H          1 MOL1         0.0950
     133    H5      21.057105   17.726648   18.354780 H          1 MOL1         0.0950
     134    C2      19.909745   19.231689   19.412512 C.3        1 MOL1        -0.1415
     135    H6      19.799791   20.323461   19.392539 H          1 MOL1         0.0976
     136    H7      18.923137   18.798990   19.199363 H          1 MOL1         0.0976
     137    C3      20.377052   18.790225   20.816428 C.3        1 MOL1        -0.1375
     138    H8      21.317640   19.298162   21.068707 H          1 MOL1         0.0976
     139    H9      20.591438   17.714161   20.812618 H          1 MOL1         0.0976
     140    C4      19.317268   19.099123   21.898047 C.3        1 MOL1        -0.1375
     141    H10     19.055596   20.164433   21.862370 H          1 MOL1         0.0976
     142    H11     18.398522   18.541232   21.679059 H          1 MOL1         0.0976
     143    C5      19.815625   18.740490   23.316252 C.3        1 MOL1        -0.1350
     144    H12     20.787434   19.220185   23.501689 H          1 MOL1         0.0976
     145    H13     19.975880   17.656825   23.390353 H          1 MOL1         0.0976
     146    C6      18.822550   19.175293   24.414278 C.3        1 MOL1        -0.2365
     147    H14     19.249850   18.996913   25.409304 H          1 MOL1         0.0987
     148    H15     17.887337   18.607377   24.351385 H          1 MOL1         0.0987
     149    H16     18.583354   20.243663   24.337266 H          1 MOL1         0.0987
@<TRIPOS>BOND
    1     1     2    1
    2     1     3    1
    3     1     4    1
    4     4     5    1
    5     4     6    1
    6     6     7    1
    7     4     8    1
    8     8     9    1
    9     8    10    1
   10    10    11    1
   11     8    12    1
   12    12    13    1
   13    12    14    1
   14    14    15    1
   15     1    16    1
   16    14    16    1
   17    14    17    1
   18    17    18    1
   19    17    19    1
   20    17    20    1
   21    20    21    1
   22    22    23    1
   23    22    24    1
   24    22    25    1
   25    25    26    1
   26    25    27    1
   27    27    28    1
   28    25    29    1
   29    29    30    1
   30    29    31    1
   31    31    32    1
   32     3    33    1
   33    29    33    1
   34    33    34    1
   35    33    35    1
   36    35    36    1
   37    22    37    1
   38    35    37    1
   39    35    38    1
   40    38    39    1
   41    38    40    1
   42    38    41    1
   43    41    42    1
   44    43    44    1
   45    43    45    1
   46    43    46    1
   47    46    47    1
   48    46    48    1
   49    48    49    1
   50    46    50    1
   51    50    51    1
   52    50    52    1
   53    52    53    1
   54    24    54    1
   55    50    54    1
   56    54    55    1
   57    54    56    1
   58    56    57    1
   59    43    58    1
   60    56    58    1
   61    56    59    1
   62    59    60    1
   63    59    61    1
   64    59    62    1
   65    62    63    1
   66    64    65    1
   67    64    66    1
   68    64    67    1
   69    67    68    1
   70    67    69    1
   71    69    70    1
   72    67    71    1
   73    71    72    1
   74    71    73    1
   75    73    74    1
   76    45    75    1
   77    71    75    1
   78    75    76    1
   79    75    77    1
   80    77    78    1
   81    64    79    1
   82    77    79    1
   83    77    80    1
   84    80    81    1
   85    80    82    1
   86    80    83    1
   87    83    84    1
   88    85    86    1
   89    85    87    1
   90    85    88    1
   91    88    89    1
   92    88    90    1
   93    90    91    1
   94    88    92    1
   95    92    93    1
   96    92    94    1
   97    94    95    1
   98    66    96    1
   99    92    96    1
  100    96    97    1
  101    96    98    1
  102    98    99    1
  103    85   100    1
  104    98   100    1
  105    98   101    1
  106   101   102    1
  107   101   103    1
  108   101   104    1
  109   104   105    1
  110   106   107    1
  111    12   108    1
  112   106   108    1
  113   106   109    1
  114   109   110    1
  115   109   111    1
  116   111   112    1
  117   109   113    1
  118   113   114    1
  119   113   115    1
  120   115   116    1
  121    87   117    1
  122   113   117    1
  123   117   118    1
  124   117   119    1
  125   119   120    1
  126   106   121    1
  127   119   121    1
  128   119   122    1
  129   122   123    1
  130   122   124    1
  131   122   125    1
  132   125   126    1
  133   127   128    1
  134   127   129    1
  135   127   130    1
  136   127   131    1
  137   131   132    1
  138   131   133    1
  139   131   134    1
  140   134   135    1
  141   134   136    1
  142   134   137    1
  143   137   138    1
  144   137   139    1
  145   137   140    1
  146   140   141    1
  147   140   142    1
  148   140   143    1
  149   143   144    1
  150   143   145    1
  151   143   146    1
  152   146   147    1
  153   146   148    1
  154   146   149    1
@<TRIPOS>SUBSTRUCTURE
       1 MOL1            1 RESIDUE      1      MOL     
       2 MOL1          149 RESIDUE      1      MOL     
@<SCITEGIC>MOL_PROPERTY
feprocess Rank
SciTegic.value.IntegerValue
2

@<SCITEGIC>MOL_PROPERTY
Conf_Id
SciTegic.value.IntegerValue
785

@<SCITEGIC>MOL_PROPERTY
Probability
SciTegic.value.DoubleValue
14.52

@<SCITEGIC>MOL_PROPERTY
G
SciTegic.value.DoubleValue
568.290

@<SCITEGIC>MOL_PROPERTY
E
SciTegic.value.DoubleValue
371.173

@<SCITEGIC>MOL_PROPERTY
-TS
SciTegic.value.DoubleValue
197.117

@<SCITEGIC>MOL_PROPERTY
U+W
SciTegic.value.DoubleValue
239.719

@<SCITEGIC>MOL_PROPERTY
U
SciTegic.value.DoubleValue
333.290

@<SCITEGIC>MOL_PROPERTY
W
SciTegic.value.DoubleValue
-93.571

@<SCITEGIC>MOL_PROPERTY
W(PB)
SciTegic.value.DoubleValue
-99.598

@<SCITEGIC>MOL_PROPERTY
W(SA)
SciTegic.value.DoubleValue
6.027

@<SCITEGIC>MOL_PROPERTY
Valence
SciTegic.value.DoubleValue
146.492

@<SCITEGIC>MOL_PROPERTY
Coulomb
SciTegic.value.DoubleValue
212.523

@<SCITEGIC>MOL_PROPERTY
VdW
SciTegic.value.DoubleValue
-25.726

@<SCITEGIC>MOL_PROPERTY
VdW6
SciTegic.value.DoubleValue
-178.058

@<SCITEGIC>MOL_PROPERTY
VdW12
SciTegic.value.DoubleValue
152.332

@<SCITEGIC>MOL_PROPERTY
Bond
SciTegic.value.DoubleValue
4.635

@<SCITEGIC>MOL_PROPERTY
Angle
SciTegic.value.DoubleValue
12.045

@<SCITEGIC>MOL_PROPERTY
Pdih
SciTegic.value.DoubleValue
129.813

@<SCITEGIC>MOL_PROPERTY
Idih
SciTegic.value.DoubleValue
0.000

@<SCITEGIC>MOL_PROPERTY
Tether
SciTegic.value.DoubleValue
0.000

@<TRIPOS>MOLECULE
CD_guest-2_fast_vm2_rndm.mol2 : feprocess host+ligand conformer 3
         149         154           2
SMALL
USER_CHARGES
 
@<TRIPOS>ATOM
       1    C1      16.147703   15.071107   20.711204 C.3        1 MOL1         0.2972
       2    H1      15.112616   14.929795   20.374332 H          1 MOL1         0.0751
       3    O1      16.414832   16.440260   21.080489 O.3        1 MOL1        -0.3740
       4    C2      16.454494   14.184581   21.944716 C.3        1 MOL1         0.1003
       5    H2      16.326620   13.137621   21.640362 H          1 MOL1         0.0783
       6    O2      15.557337   14.474159   23.028521 O.3        1 MOL1        -0.5519
       7    H3      15.502047   15.459814   23.115582 H          1 MOL1         0.3769
       8    C3      17.923979   14.379245   22.390160 C.3        1 MOL1         0.1053
       9    H4      18.034943   15.409440   22.753839 H          1 MOL1         0.0783
      10    O3      18.239343   13.461928   23.442868 O.3        1 MOL1        -0.5519
      11    H5      17.473637   13.504671   24.057914 H          1 MOL1         0.3769
      12    C4      18.901501   14.175451   21.206098 C.3        1 MOL1         0.1018
      13    H6      18.949727   13.101356   20.984171 H          1 MOL1         0.0783
      14    C5      18.464625   14.958287   19.934043 C.3        1 MOL1         0.1043
      15    H7      18.587283   16.028462   20.130837 H          1 MOL1         0.0783
      16    O4      17.067859   14.695294   19.663651 O.3        1 MOL1        -0.3740
      17    C6      19.278267   14.643845   18.653059 C.3        1 MOL1         0.0138
      18    H8      20.174931   15.275114   18.644023 H          1 MOL1         0.0794
      19    H9      18.677733   14.932080   17.779971 H          1 MOL1         0.0794
      20    O5      19.662434   13.268965   18.550790 O.3        1 MOL1        -0.5486
      21    H10     20.535866   13.185329   18.993989 H          1 MOL1         0.3769
      22    C7      14.797970   20.242370   21.029335 C.3        1 MOL1         0.2972
      23    H11     14.160429   21.132539   20.954417 H          1 MOL1         0.0751
      24    O6      16.198497   20.599985   21.056310 O.3        1 MOL1        -0.3740
      25    C8      14.435598   19.401427   22.284278 C.3        1 MOL1         0.1003
      26    H12     13.402245   19.055352   22.151030 H          1 MOL1         0.0783
      27    O7      14.509452   20.167947   23.495065 O.3        1 MOL1        -0.5519
      28    H13     15.457325   20.430130   23.611070 H          1 MOL1         0.3769
      29    C9      15.344930   18.153711   22.371539 C.3        1 MOL1         0.1053
      30    H14     16.376285   18.492105   22.531162 H          1 MOL1         0.0783
      31    O8      14.931826   17.332973   23.468707 O.3        1 MOL1        -0.5519
      32    H15     14.769535   17.958019   24.210104 H          1 MOL1         0.3769
      33    C10     15.291070   17.338904   21.055757 C.3        1 MOL1         0.1018
      34    H16     14.333860   16.801606   21.026714 H          1 MOL1         0.0783
      35    C11     15.439501   18.226781   19.787775 C.3        1 MOL1         0.1043
      36    H17     16.484284   18.555785   19.722449 H          1 MOL1         0.0783
      37    O9      14.583320   19.392538   19.883021 O.3        1 MOL1        -0.3740
      38    C12     15.107447   17.482199   18.472171 C.3        1 MOL1         0.0138
      39    H18     15.907664   16.757810   18.269554 H          1 MOL1         0.0794
      40    H19     15.109180   18.208460   17.648399 H          1 MOL1         0.0794
      41    O10     13.845632   16.805394   18.537391 O.3        1 MOL1        -0.5486
      42    H20     13.675560   16.406967   17.656026 H          1 MOL1         0.3769
      43    C13     18.737222   23.804567   21.887786 C.3        1 MOL1         0.2972
      44    H21     19.155863   24.763749   22.216785 H          1 MOL1         0.0751
      45    O11     19.664390   23.077109   21.055846 O.3        1 MOL1        -0.3740
      46    C14     18.354224   22.927619   23.110447 C.3        1 MOL1         0.1003
      47    H22     17.611542   23.490742   23.690673 H          1 MOL1         0.0783
      48    O12     19.485970   22.641010   23.948103 O.3        1 MOL1        -0.5519
      49    H23     20.130520   23.378346   23.828127 H          1 MOL1         0.3769
      50    C15     17.704194   21.604029   22.650602 C.3        1 MOL1         0.1053
      51    H24     18.464398   21.026356   22.112449 H          1 MOL1         0.0783
      52    O13     17.270034   20.880681   23.805399 O.3        1 MOL1        -0.5519
      53    H25     18.021633   20.958098   24.435433 H          1 MOL1         0.3769
      54    C16     16.522967   21.859760   21.683215 C.3        1 MOL1         0.1018
      55    H26     15.679359   22.261875   22.259883 H          1 MOL1         0.0783
      56    C17     16.905875   22.856688   20.553733 C.3        1 MOL1         0.1043
      57    H27     17.614631   22.356344   19.880781 H          1 MOL1         0.0783
      58    O14     17.536699   24.033516   21.119442 O.3        1 MOL1        -0.3740
      59    C18     15.699878   23.313904   19.698194 C.3        1 MOL1         0.0138
      60    H28     15.371655   22.468174   19.078827 H          1 MOL1         0.0794
      61    H29     16.035064   24.106833   19.016239 H          1 MOL1         0.0794
      62    O15     14.608964   23.777537   20.504088 O.3        1 MOL1        -0.5486
      63    H30     13.919741   24.128849   19.898936 H          1 MOL1         0.3769
      64    C19     23.730294   22.808814   20.488835 C.3        1 MOL1         0.2972
      65    H31     24.792299   22.896078   20.225502 H          1 MOL1         0.0751
      66    O16     23.383110   21.452017   20.850884 O.3        1 MOL1        -0.3740
      67    C20     23.345385   23.790769   21.625601 C.3        1 MOL1         0.1003
      68    H32     23.451331   24.805236   21.219047 H          1 MOL1         0.0783
      69    O17     24.202705   23.671173   22.769240 O.3        1 MOL1        -0.5519
      70    H33     24.026287   22.781603   23.165928 H          1 MOL1         0.3769
      71    C21     21.860957   23.593001   22.017315 C.3        1 MOL1         0.1053
      72    H34     21.748513   22.582183   22.432221 H          1 MOL1         0.0783
      73    O18     21.515999   24.566246   23.010024 O.3        1 MOL1        -0.5519
      74    H35     22.314385   24.640220   23.581476 H          1 MOL1         0.3769
      75    C22     20.930909   23.711495   20.773645 C.3        1 MOL1         0.1018
      76    H36     20.796522   24.772399   20.528348 H          1 MOL1         0.0783
      77    C23     21.486325   22.961685   19.528408 C.3        1 MOL1         0.1043
      78    H37     21.320261   21.891667   19.691407 H          1 MOL1         0.0783
      79    O19     22.909226   23.182767   19.363390 O.3        1 MOL1        -0.3740
      80    C24     20.766501   23.332519   18.208452 C.3        1 MOL1         0.0138
      81    H38     19.742206   22.937422   18.243994 H          1 MOL1         0.0794
      82    H39     21.280380   22.828067   17.379496 H          1 MOL1         0.0794
      83    O20     20.733462   24.745811   17.975102 O.3        1 MOL1        -0.5486
      84    H40     20.063828   25.132399   18.578897 H          1 MOL1         0.3769
      85    C25     24.719143   17.853534   22.361362 C.3        1 MOL1         0.2972
      86    H41     25.281824   17.019316   22.799940 H          1 MOL1         0.0751
      87    O21     23.470924   17.411578   21.792502 O.3        1 MOL1        -0.3740
      88    C26     24.423949   18.920508   23.442530 C.3        1 MOL1         0.1003
      89    H42     25.391700   19.279867   23.816189 H          1 MOL1         0.0783
      90    O22     23.670606   18.367837   24.534779 O.3        1 MOL1        -0.5519
      91    H43     23.685028   17.385069   24.431739 H          1 MOL1         0.3769
      92    C27     23.664299   20.120830   22.836431 C.3        1 MOL1         0.1053
      93    H44     22.667701   19.776217   22.540640 H          1 MOL1         0.0783
      94    O23     23.538034   21.127039   23.843139 O.3        1 MOL1        -0.5519
      95    H45     23.247260   20.636403   24.645326 H          1 MOL1         0.3769
      96    C28     24.366527   20.678368   21.569849 C.3        1 MOL1         0.1018
      97    H46     25.229319   21.284406   21.876287 H          1 MOL1         0.0783
      98    C29     24.824808   19.553166   20.597283 C.3        1 MOL1         0.1043
      99    H47     23.930922   19.148488   20.106024 H          1 MOL1         0.0783
     100    O24     25.488564   18.482522   21.315799 O.3        1 MOL1        -0.3740
     101    C30     25.769232   20.055867   19.479461 C.3        1 MOL1         0.0138
     102    H48     25.187506   20.678973   18.786691 H          1 MOL1         0.0794
     103    H49     26.133646   19.189164   18.911761 H          1 MOL1         0.0794
     104    O25     26.870740   20.809614   20.001033 O.3        1 MOL1        -0.5486
     105    H50     27.464570   21.028727   19.250000 H          1 MOL1         0.3769
     106    C31     21.314063   13.851043   21.459882 C.3        1 MOL1         0.2972
     107    H51     21.025995   12.803620   21.304327 H          1 MOL1         0.0751
     108    O26     20.165194   14.696438   21.654137 O.3        1 MOL1        -0.3740
     109    C32     22.181235   13.972586   22.736737 C.3        1 MOL1         0.1003
     110    H52     23.067947   13.340340   22.598061 H          1 MOL1         0.0783
     111    O27     21.444335   13.516495   23.882861 O.3        1 MOL1        -0.5519
     112    H53     20.495524   13.743009   23.721613 H          1 MOL1         0.3769
     113    C33     22.657518   15.430025   22.949720 C.3        1 MOL1         0.1053
     114    H54     21.779231   16.047073   23.181264 H          1 MOL1         0.0783
     115    O28     23.575821   15.461289   24.047275 O.3        1 MOL1        -0.5519
     116    H55     23.173249   14.876125   24.728705 H          1 MOL1         0.3769
     117    C34     23.317858   15.986557   21.661033 C.3        1 MOL1         0.1018
     118    H56     24.285053   15.489162   21.510777 H          1 MOL1         0.0783
     119    C35     22.431374   15.751107   20.410279 C.3        1 MOL1         0.1043
     120    H57     21.521067   16.352183   20.519261 H          1 MOL1         0.0783
     121    O29     22.068257   14.350435   20.332952 O.3        1 MOL1        -0.3740
     122    C36     23.097888   16.182560   19.078867 C.3        1 MOL1         0.0138
     123    H58     22.974492   17.267357   18.966075 H          1 MOL1         0.0794
     124    H59     22.562115   15.708718   18.245893 H          1 MOL1         0.0794
     125    O30     24.490726   15.854530   19.018390 O.3        1 MOL1        -0.5486
     126    H60     24.958038   16.443363   19.651211 H          1 MOL1         0.3769
     127    N1      20.237003   19.147809   16.858440 N.4        1 MOL1        -0.5940
     128    H1      20.290166   18.142580   16.667742 H          1 MOL1         0.3649
     129    H2      20.812542   19.615107   16.149695 H          1 MOL1         0.3649
     130    H3      19.267857   19.436825   16.691873 H          1 MOL1         0.3649
     131    C1      20.693426   19.485275   18.262901 C.3        1 MOL1         0.0207
     132    H4      20.638540   20.569239   18.377448 H          1 MOL1         0.0950
     133    H5      21.738533   19.179901   18.361620 H          1 MOL1         0.0950
     134    C2      19.846792   18.807398   19.353243 C.3        1 MOL1        -0.1415
     135    H6      18.805397   19.147085   19.274112 H          1 MOL1         0.0976
     136    H7      19.847233   17.724140   19.184969 H          1 MOL1         0.0976
     137    C3      20.383146   19.109536   20.769650 C.3        1 MOL1        -0.1375
     138    H8      20.350452   20.191241   20.958401 H          1 MOL1         0.0976
     139    H9      21.437031   18.811636   20.833288 H          1 MOL1         0.0976
     140    C4      19.569482   18.370724   21.855939 C.3        1 MOL1        -0.1375
     141    H10     18.513767   18.662863   21.784495 H          1 MOL1         0.0976
     142    H11     19.609366   17.290466   21.678512 H          1 MOL1         0.0976
     143    C5      20.089438   18.657370   23.280326 C.3        1 MOL1        -0.1350
     144    H12     20.066393   19.737793   23.480552 H          1 MOL1         0.0976
     145    H13     21.137341   18.342645   23.363929 H          1 MOL1         0.0976
     146    C6      19.257977   17.914098   24.346290 C.3        1 MOL1        -0.2365
     147    H14     19.624050   18.149985   25.353716 H          1 MOL1         0.0987
     148    H15     19.325611   16.827040   24.210978 H          1 MOL1         0.0987
     149    H16     18.199452   18.200762   24.295527 H          1 MOL1         0.0987
@<TRIPOS>BOND
    1     1     2    1
    2     1     3    1
    3     1     4    1
    4     4     5    1
    5     4     6    1
    6     6     7    1
    7     4     8    1
    8     8     9    1
    9     8    10    1
   10    10    11    1
   11     8    12    1
   12    12    13    1
   13    12    14    1
   14    14    15    1
   15     1    16    1
   16    14    16    1
   17    14    17    1
   18    17    18    1
   19    17    19    1
   20    17    20    1
   21    20    21    1
   22    22    23    1
   23    22    24    1
   24    22    25    1
   25    25    26    1
   26    25    27    1
   27    27    28    1
   28    25    29    1
   29    29    30    1
   30    29    31    1
   31    31    32    1
   32     3    33    1
   33    29    33    1
   34    33    34    1
   35    33    35    1
   36    35    36    1
   37    22    37    1
   38    35    37    1
   39    35    38    1
   40    38    39    1
   41    38    40    1
   42    38    41    1
   43    41    42    1
   44    43    44    1
   45    43    45    1
   46    43    46    1
   47    46    47    1
   48    46    48    1
   49    48    49    1
   50    46    50    1
   51    50    51    1
   52    50    52    1
   53    52    53    1
   54    24    54    1
   55    50    54    1
   56    54    55    1
   57    54    56    1
   58    56    57    1
   59    43    58    1
   60    56    58    1
   61    56    59    1
   62    59    60    1
   63    59    61    1
   64    59    62    1
   65    62    63    1
   66    64    65    1
   67    64    66    1
   68    64    67    1
   69    67    68    1
   70    67    69    1
   71    69    70    1
   72    67    71    1
   73    71    72    1
   74    71    73    1
   75    73    74    1
   76    45    75    1
   77    71    75    1
   78    75    76    1
   79    75    77    1
   80    77    78    1
   81    64    79    1
   82    77    79    1
   83    77    80    1
   84    80    81    1
   85    80    82    1
   86    80    83    1
   87    83    84    1
   88    85    86    1
   89    85    87    1
   90    85    88    1
   91    88    89    1
   92    88    90    1
   93    90    91    1
   94    88    92    1
   95    92    93    1
   96    92    94    1
   97    94    95    1
   98    66    96    1
   99    92    96    1
  100    96    97    1
  101    96    98    1
  102    98    99    1
  103    85   100    1
  104    98   100    1
  105    98   101    1
  106   101   102    1
  107   101   103    1
  108   101   104    1
  109   104   105    1
  110   106   107    1
  111    12   108    1
  112   106   108    1
  113   106   109    1
  114   109   110    1
  115   109   111    1
  116   111   112    1
  117   109   113    1
  118   113   114    1
  119   113   115    1
  120   115   116    1
  121    87   117    1
  122   113   117    1
  123   117   118    1
  124   117   119    1
  125   119   120    1
  126   106   121    1
  127   119   121    1
  128   119   122    1
  129   122   123    1
  130   122   124    1
  131   122   125    1
  132   125   126    1
  133   127   128    1
  134   127   129    1
  135   127   130    1
  136   127   131    1
  137   131   132    1
  138   131   133    1
  139   131   134    1
  140   134   135    1
  141   134   136    1
  142   134   137    1
  143   137   138    1
  144   137   139    1
  145   137   140    1
  146   140   141    1
  147   140   142    1
  148   140   143    1
  149   143   144    1
  150   143   145    1
  151   143   146    1
  152   146   147    1
  153   146   148    1
  154   146   149    1
@<TRIPOS>SUBSTRUCTURE
       1 MOL1            1 RESIDUE      1      MOL     
       2 MOL1          149 RESIDUE      1      MOL     
@<SCITEGIC>MOL_PROPERTY
feprocess Rank
SciTegic.value.IntegerValue
3

@<SCITEGIC>MOL_PROPERTY
Conf_Id
SciTegic.value.IntegerValue
737

@<SCITEGIC>MOL_PROPERTY
Probability
SciTegic.value.DoubleValue
11.66

@<SCITEGIC>MOL_PROPERTY
G
SciTegic.value.DoubleValue
568.421

@<SCITEGIC>MOL_PROPERTY
E
SciTegic.value.DoubleValue
371.362

@<SCITEGIC>MOL_PROPERTY
-TS
SciTegic.value.DoubleValue
197.058

@<SCITEGIC>MOL_PROPERTY
U+W
SciTegic.value.DoubleValue
239.909

@<SCITEGIC>MOL_PROPERTY
U
SciTegic.value.DoubleValue
334.859

@<SCITEGIC>MOL_PROPERTY
W
SciTegic.value.DoubleValue
-94.951

@<SCITEGIC>MOL_PROPERTY
W(PB)
SciTegic.value.DoubleValue
-101.005

@<SCITEGIC>MOL_PROPERTY
W(SA)
SciTegic.value.DoubleValue
6.055

@<SCITEGIC>MOL_PROPERTY
Valence
SciTegic.value.DoubleValue
145.737

@<SCITEGIC>MOL_PROPERTY
Coulomb
SciTegic.value.DoubleValue
215.217

@<SCITEGIC>MOL_PROPERTY
VdW
SciTegic.value.DoubleValue
-26.094

@<SCITEGIC>MOL_PROPERTY
VdW6
SciTegic.value.DoubleValue
-178.794

@<SCITEGIC>MOL_PROPERTY
VdW12
SciTegic.value.DoubleValue
152.700

@<SCITEGIC>MOL_PROPERTY
Bond
SciTegic.value.DoubleValue
4.606

@<SCITEGIC>MOL_PROPERTY
Angle
SciTegic.value.DoubleValue
11.888

@<SCITEGIC>MOL_PROPERTY
Pdih
SciTegic.value.DoubleValue
129.244

@<SCITEGIC>MOL_PROPERTY
Idih
SciTegic.value.DoubleValue
0.000

@<SCITEGIC>MOL_PROPERTY
Tether
SciTegic.value.DoubleValue
0.000

@<TRIPOS>MOLECULE
CD_guest-2_fast_vm2_rndm.mol2 : feprocess host+ligand conformer 4
         149         154           2
SMALL
USER_CHARGES
 
@<TRIPOS>ATOM
       1    C1      16.270722   15.451175   21.717904 C.3        1 MOL1         0.2972
       2    H1      15.216771   15.311322   21.989849 H          1 MOL1         0.0751
       3    O1      16.474813   16.690469   21.008167 O.3        1 MOL1        -0.3740
       4    C2      17.162251   15.431861   22.987931 C.3        1 MOL1         0.1003
       5    H2      17.011348   14.458501   23.472781 H          1 MOL1         0.0783
       6    O2      16.812905   16.478568   23.909176 O.3        1 MOL1        -0.5519
       7    H3      15.879206   16.735947   23.717549 H          1 MOL1         0.3769
       8    C3      18.654248   15.559324   22.613558 C.3        1 MOL1         0.1053
       9    H4      18.802643   16.563668   22.202861 H          1 MOL1         0.0783
      10    O3      19.443209   15.393954   23.795735 O.3        1 MOL1        -0.5519
      11    H5      18.940696   15.871335   24.493882 H          1 MOL1         0.3769
      12    C4      19.075725   14.537164   21.530410 C.3        1 MOL1         0.1018
      13    H6      19.162462   13.546451   21.995499 H          1 MOL1         0.0783
      14    C5      18.062192   14.477148   20.352529 C.3        1 MOL1         0.1043
      15    H7      18.157585   15.402928   19.771011 H          1 MOL1         0.0783
      16    O4      16.707441   14.375170   20.860432 O.3        1 MOL1        -0.3740
      17    C6      18.310909   13.298741   19.380760 C.3        1 MOL1         0.0138
      18    H8      19.223183   13.508041   18.805918 H          1 MOL1         0.0794
      19    H9      17.478508   13.253140   18.665761 H          1 MOL1         0.0794
      20    O5      18.446461   12.048601   20.068229 O.3        1 MOL1        -0.5486
      21    H10     18.514020   11.341203   19.390231 H          1 MOL1         0.3769
      22    C7      14.637740   20.323097   20.426573 C.3        1 MOL1         0.2972
      23    H11     14.023388   21.194086   20.164355 H          1 MOL1         0.0751
      24    O6      15.981390   20.709599   20.792256 O.3        1 MOL1        -0.3740
      25    C8      13.990695   19.491949   21.564745 C.3        1 MOL1         0.1003
      26    H12     13.058747   19.072736   21.163129 H          1 MOL1         0.0783
      27    O7      13.671051   20.291750   22.711440 O.3        1 MOL1        -0.5519
      28    H13     14.529745   20.611310   23.086159 H          1 MOL1         0.3769
      29    C9      14.911840   18.309089   21.951592 C.3        1 MOL1         0.1053
      30    H14     15.835739   18.720533   22.380725 H          1 MOL1         0.0783
      31    O8      14.242292   17.502912   22.927712 O.3        1 MOL1        -0.5519
      32    H15     13.784954   18.145476   23.516858 H          1 MOL1         0.3769
      33    C10     15.291672   17.459119   20.704423 C.3        1 MOL1         0.1018
      34    H16     14.447493   16.806432   20.448963 H          1 MOL1         0.0783
      35    C11     15.659539   18.322071   19.462310 C.3        1 MOL1         0.1043
      36    H17     16.663102   18.730187   19.622684 H          1 MOL1         0.0783
      37    O9      14.736508   19.427870   19.299434 O.3        1 MOL1        -0.3740
      38    C12     15.713867   17.515462   18.141577 C.3        1 MOL1         0.0138
      39    H18     16.580852   16.842102   18.177233 H          1 MOL1         0.0794
      40    H19     15.881997   18.216964   17.313687 H          1 MOL1         0.0794
      41    O10     14.521273   16.757000   17.905853 O.3        1 MOL1        -0.5486
      42    H20     14.540328   15.978321   18.502340 H          1 MOL1         0.3769
      43    C13     18.479835   23.669514   22.156705 C.3        1 MOL1         0.2972
      44    H21     18.950710   24.576782   22.556296 H          1 MOL1         0.0751
      45    O11     19.455529   22.764468   21.607551 O.3        1 MOL1        -0.3740
      46    C14     17.713735   22.934918   23.281589 C.3        1 MOL1         0.1003
      47    H22     16.952088   23.628085   23.662174 H          1 MOL1         0.0783
      48    O12     18.600250   22.558298   24.352855 O.3        1 MOL1        -0.5519
      49    H23     19.403620   23.126777   24.268830 H          1 MOL1         0.3769
      50    C15     17.001471   21.680567   22.729610 C.3        1 MOL1         0.1053
      51    H24     17.775867   20.957557   22.449719 H          1 MOL1         0.0783
      52    O13     16.178098   21.134899   23.763700 O.3        1 MOL1        -0.5519
      53    H25     16.654405   21.330591   24.598645 H          1 MOL1         0.3769
      54    C16     16.162896   21.975257   21.459027 C.3        1 MOL1         0.1018
      55    H26     15.209150   22.432401   21.754133 H          1 MOL1         0.0783
      56    C17     16.908089   22.889111   20.444582 C.3        1 MOL1         0.1043
      57    H27     17.682976   22.283326   19.959209 H          1 MOL1         0.0783
      58    O14     17.541596   24.008018   21.114465 O.3        1 MOL1        -0.3740
      59    C18     15.992719   23.437498   19.324220 C.3        1 MOL1         0.0138
      60    H28     15.712724   22.604623   18.665020 H          1 MOL1         0.0794
      61    H29     16.566747   24.152999   18.720196 H          1 MOL1         0.0794
      62    O15     14.812745   24.059823   19.847306 O.3        1 MOL1        -0.5486
      63    H30     14.320158   24.448053   19.091420 H          1 MOL1         0.3769
      64    C19     23.552366   22.670338   20.879866 C.3        1 MOL1         0.2972
      65    H31     24.583031   22.885789   20.569564 H          1 MOL1         0.0751
      66    O16     23.381038   21.280300   21.228654 O.3        1 MOL1        -0.3740
      67    C20     23.128299   23.551774   22.087205 C.3        1 MOL1         0.1003
      68    H32     23.158391   24.596431   21.750997 H          1 MOL1         0.0783
      69    O17     24.020106   23.401617   23.201379 O.3        1 MOL1        -0.5519
      70    H33     24.025467   22.442720   23.449536 H          1 MOL1         0.3769
      71    C21     21.670984   23.228494   22.501552 C.3        1 MOL1         0.1053
      72    H34     21.644330   22.191661   22.858500 H          1 MOL1         0.0783
      73    O18     21.259316   24.107945   23.554348 O.3        1 MOL1        -0.5519
      74    H35     22.035162   24.165245   24.156359 H          1 MOL1         0.3769
      75    C22     20.723636   23.356781   21.278173 C.3        1 MOL1         0.1018
      76    H36     20.618153   24.420089   21.026128 H          1 MOL1         0.0783
      77    C23     21.256940   22.594380   20.036128 C.3        1 MOL1         0.1043
      78    H37     21.203437   21.518715   20.244622 H          1 MOL1         0.0783
      79    O19     22.637845   22.963144   19.798844 O.3        1 MOL1        -0.3740
      80    C24     20.433727   22.843389   18.745412 C.3        1 MOL1         0.0138
      81    H38     19.581912   22.151569   18.740195 H          1 MOL1         0.0794
      82    H39     21.056615   22.589697   17.877330 H          1 MOL1         0.0794
      83    O20     19.953301   24.188745   18.631675 O.3        1 MOL1        -0.5486
      84    H40     19.278695   24.320370   19.334720 H          1 MOL1         0.3769
      85    C25     25.174142   17.677526   21.923628 C.3        1 MOL1         0.2972
      86    H41     25.809973   16.804215   22.117765 H          1 MOL1         0.0751
      87    O21     23.831946   17.298229   21.551200 O.3        1 MOL1        -0.3740
      88    C26     25.104480   18.579326   23.179039 C.3        1 MOL1         0.1003
      89    H42     26.114474   18.966845   23.366461 H          1 MOL1         0.0783
      90    O22     24.659086   17.845579   24.330572 O.3        1 MOL1        -0.5519
      91    H43     24.230463   17.015322   24.004434 H          1 MOL1         0.3769
      92    C27     24.171331   19.779928   22.916228 C.3        1 MOL1         0.1053
      93    H44     23.160120   19.383310   22.785762 H          1 MOL1         0.0783
      94    O23     24.196261   20.653249   24.047786 O.3        1 MOL1        -0.5519
      95    H45     24.157410   20.052053   24.825923 H          1 MOL1         0.3769
      96    C28     24.556741   20.545818   21.623842 C.3        1 MOL1         0.1018
      97    H46     25.404036   21.207726   21.847049 H          1 MOL1         0.0783
      98    C29     24.904001   19.604078   20.431356 C.3        1 MOL1         0.1043
      99    H47     23.959999   19.215748   20.029949 H          1 MOL1         0.0783
     100    O24     25.720466   18.481734   20.858129 O.3        1 MOL1        -0.3740
     101    C30     25.624742   20.325104   19.267707 C.3        1 MOL1         0.0138
     102    H48     24.907443   20.996206   18.776007 H          1 MOL1         0.0794
     103    H49     25.931082   19.574841   18.526413 H          1 MOL1         0.0794
     104    O25     26.760440   21.073950   19.717642 O.3        1 MOL1        -0.5486
     105    H50     27.211226   21.437888   18.924473 H          1 MOL1         0.3769
     106    C31     21.382392   14.019319   20.840109 C.3        1 MOL1         0.2972
     107    H51     20.969733   13.038719   20.570780 H          1 MOL1         0.0751
     108    O26     20.335161   15.001554   20.998586 O.3        1 MOL1        -0.3740
     109    C32     22.236461   13.928556   22.136431 C.3        1 MOL1         0.1003
     110    H52     23.062848   13.237590   21.924477 H          1 MOL1         0.0783
     111    O27     21.487449   13.419396   23.249707 O.3        1 MOL1        -0.5519
     112    H53     20.779265   14.083443   23.445892 H          1 MOL1         0.3769
     113    C33     22.850832   15.304739   22.487945 C.3        1 MOL1         0.1053
     114    H54     22.032457   15.986586   22.755482 H          1 MOL1         0.0783
     115    O28     23.740116   15.155370   23.598156 O.3        1 MOL1        -0.5519
     116    H55     23.272319   14.555988   24.222587 H          1 MOL1         0.3769
     117    C34     23.611034   15.902707   21.277457 C.3        1 MOL1         0.1018
     118    H56     24.552114   15.354200   21.142315 H          1 MOL1         0.0783
     119    C35     22.784520   15.827208   19.965885 C.3        1 MOL1         0.1043
     120    H57     21.949769   16.532067   20.050764 H          1 MOL1         0.0783
     121    O29     22.258547   14.488171   19.791311 O.3        1 MOL1        -0.3740
     122    C36     23.581730   16.222510   18.697198 C.3        1 MOL1         0.0138
     123    H58     23.669811   17.315806   18.664481 H          1 MOL1         0.0794
     124    H59     23.003092   15.919348   17.814516 H          1 MOL1         0.0794
     125    O30     24.888858   15.638578   18.653492 O.3        1 MOL1        -0.5486
     126    H60     25.465120   16.165726   19.248672 H          1 MOL1         0.3769
     127    N1      18.785797   19.672856   25.121080 N.4        1 MOL1        -0.5940
     128    H1      19.550239   19.557434   25.792762 H          1 MOL1         0.3649
     129    H2      17.927304   19.339385   25.571821 H          1 MOL1         0.3649
     130    H3      18.682972   20.686828   24.951967 H          1 MOL1         0.3649
     131    C1      19.055929   18.932677   23.829472 C.3        1 MOL1         0.0207
     132    H4      18.156849   19.001764   23.211758 H          1 MOL1         0.0950
     133    H5      19.229397   17.880561   24.066760 H          1 MOL1         0.0950
     134    C2      20.263863   19.511281   23.074132 C.3        1 MOL1        -0.1415
     135    H6      20.106824   20.582732   22.912396 H          1 MOL1         0.0976
     136    H7      21.151054   19.418273   23.712593 H          1 MOL1         0.0976
     137    C3      20.533153   18.827592   21.714287 C.3        1 MOL1        -0.1375
     138    H8      20.720440   17.757825   21.872535 H          1 MOL1         0.0976
     139    H9      21.458729   19.243251   21.299234 H          1 MOL1         0.0976
     140    C4      19.381752   19.022294   20.695895 C.3        1 MOL1        -0.1375
     141    H10     18.447914   18.636953   21.124112 H          1 MOL1         0.0976
     142    H11     19.216138   20.093377   20.518588 H          1 MOL1         0.0976
     143    C5      19.633186   18.302859   19.348335 C.3        1 MOL1        -0.1350
     144    H12     18.730974   18.377694   18.728102 H          1 MOL1         0.0976
     145    H13     19.789990   17.231102   19.527536 H          1 MOL1         0.0976
     146    C6      20.823033   18.879398   18.548169 C.3        1 MOL1        -0.2365
     147    H14     21.765391   18.795594   19.100226 H          1 MOL1         0.0987
     148    H15     20.660543   19.936607   18.309018 H          1 MOL1         0.0987
     149    H16     20.944387   18.339327   17.600318 H          1 MOL1         0.0987
@<TRIPOS>BOND
    1     1     2    1
    2     1     3    1
    3     1     4    1
    4     4     5    1
    5     4     6    1
    6     6     7    1
    7     4     8    1
    8     8     9    1
    9     8    10    1
   10    10    11    1
   11     8    12    1
   12    12    13    1
   13    12    14    1
   14    14    15    1
   15     1    16    1
   16    14    16    1
   17    14    17    1
   18    17    18    1
   19    17    19    1
   20    17    20    1
   21    20    21    1
   22    22    23    1
   23    22    24    1
   24    22    25    1
   25    25    26    1
   26    25    27    1
   27    27    28    1
   28    25    29    1
   29    29    30    1
   30    29    31    1
   31    31    32    1
   32     3    33    1
   33    29    33    1
   34    33    34    1
   35    33    35    1
   36    35    36    1
   37    22    37    1
   38    35    37    1
   39    35    38    1
   40    38    39    1
   41    38    40    1
   42    38    41    1
   43    41    42    1
   44    43    44    1
   45    43    45    1
   46    43    46    1
   47    46    47    1
   48    46    48    1
   49    48    49    1
   50    46    50    1
   51    50    51    1
   52    50    52    1
   53    52    53    1
   54    24    54    1
   55    50    54    1
   56    54    55    1
   57    54    56    1
   58    56    57    1
   59    43    58    1
   60    56    58    1
   61    56    59    1
   62    59    60    1
   63    59    61    1
   64    59    62    1
   65    62    63    1
   66    64    65    1
   67    64    66    1
   68    64    67    1
   69    67    68    1
   70    67    69    1
   71    69    70    1
   72    67    71    1
   73    71    72    1
   74    71    73    1
   75    73    74    1
   76    45    75    1
   77    71    75    1
   78    75    76    1
   79    75    77    1
   80    77    78    1
   81    64    79    1
   82    77    79    1
   83    77    80    1
   84    80    81    1
   85    80    82    1
   86    80    83    1
   87    83    84    1
   88    85    86    1
   89    85    87    1
   90    85    88    1
   91    88    89    1
   92    88    90    1
   93    90    91    1
   94    88    92    1
   95    92    93    1
   96    92    94    1
   97    94    95    1
   98    66    96    1
   99    92    96    1
  100    96    97    1
  101    96    98    1
  102    98    99    1
  103    85   100    1
  104    98   100    1
  105    98   101    1
  106   101   102    1
  107   101   103    1
  108   101   104    1
  109   104   105    1
  110   106   107    1
  111    12   108    1
  112   106   108    1
  113   106   109    1
  114   109   110    1
  115   109   111    1
  116   111   112    1
  117   109   113    1
  118   113   114    1
  119   113   115    1
  120   115   116    1
  121    87   117    1
  122   113   117    1
  123   117   118    1
  124   117   119    1
  125   119   120    1
  126   106   121    1
  127   119   121    1
  128   119   122    1
  129   122   123    1
  130   122   124    1
  131   122   125    1
  132   125   126    1
  133   127   128    1
  134   127   129    1
  135   127   130    1
  136   127   131    1
  137   131   132    1
  138   131   133    1
  139   131   134    1
  140   134   135    1
  141   134   136    1
  142   134   137    1
  143   137   138    1
  144   137   139    1
  145   137   140    1
  146   140   141    1
  147   140   142    1
  148   140   143    1
  149   143   144    1
  150   143   145    1
  151   143   146    1
  152   146   147    1
  153   146   148    1
  154   146   149    1
@<TRIPOS>SUBSTRUCTURE
       1 MOL1            1 RESIDUE      1      MOL     
       2 MOL1          149 RESIDUE      1      MOL     
@<SCITEGIC>MOL_PROPERTY
feprocess Rank
SciTegic.value.IntegerValue
4

@<SCITEGIC>MOL_PROPERTY
Conf_Id
SciTegic.value.IntegerValue
723

@<SCITEGIC>MOL_PROPERTY
Probability
SciTegic.value.DoubleValue
9.71

@<SCITEGIC>MOL_PROPERTY
G
SciTegic.value.DoubleValue
568.530

@<SCITEGIC>MOL_PROPERTY
E
SciTegic.value.DoubleValue
368.645

@<SCITEGIC>MOL_PROPERTY
-TS
SciTegic.value.DoubleValue
199.884

@<SCITEGIC>MOL_PROPERTY
U+W
SciTegic.value.DoubleValue
237.192

@<SCITEGIC>MOL_PROPERTY
U
SciTegic.value.DoubleValue
324.563

@<SCITEGIC>MOL_PROPERTY
W
SciTegic.value.DoubleValue
-87.372

@<SCITEGIC>MOL_PROPERTY
W(PB)
SciTegic.value.DoubleValue
-93.445

@<SCITEGIC>MOL_PROPERTY
W(SA)
SciTegic.value.DoubleValue
6.073

@<SCITEGIC>MOL_PROPERTY
Valence
SciTegic.value.DoubleValue
147.097

@<SCITEGIC>MOL_PROPERTY
Coulomb
SciTegic.value.DoubleValue
204.145

@<SCITEGIC>MOL_PROPERTY
VdW
SciTegic.value.DoubleValue
-26.679

@<SCITEGIC>MOL_PROPERTY
VdW6
SciTegic.value.DoubleValue
-185.911

@<SCITEGIC>MOL_PROPERTY
VdW12
SciTegic.value.DoubleValue
159.232

@<SCITEGIC>MOL_PROPERTY
Bond
SciTegic.value.DoubleValue
4.777

@<SCITEGIC>MOL_PROPERTY
Angle
SciTegic.value.DoubleValue
12.828

@<SCITEGIC>MOL_PROPERTY
Pdih
SciTegic.value.DoubleValue
129.492

@<SCITEGIC>MOL_PROPERTY
Idih
SciTegic.value.DoubleValue
0.000

@<SCITEGIC>MOL_PROPERTY
Tether
SciTegic.value.DoubleValue
0.000

@<TRIPOS>MOLECULE
CD_guest-2_fast_vm2_rndm.mol2 : feprocess host+ligand conformer 5
         149         154           2
SMALL
USER_CHARGES
 
@<TRIPOS>ATOM
       1    C1      16.129309   15.073201   21.456688 C.3        1 MOL1         0.2972
       2    H1      15.046988   14.893841   21.433350 H          1 MOL1         0.0751
       3    O1      16.445361   16.478214   21.358922 O.3        1 MOL1        -0.3740
       4    C2      16.729822   14.526627   22.775731 C.3        1 MOL1         0.1003
       5    H2      16.547100   13.444255   22.796823 H          1 MOL1         0.0783
       6    O2      16.117724   15.132208   23.925472 O.3        1 MOL1        -0.5519
       7    H3      15.733536   15.997631   23.634669 H          1 MOL1         0.3769
       8    C3      18.255955   14.755997   22.808864 C.3        1 MOL1         0.1053
       9    H4      18.420885   15.837729   22.840326 H          1 MOL1         0.0783
      10    O3      18.805142   14.145315   23.983806 O.3        1 MOL1        -0.5519
      11    H5      18.031239   14.021224   24.579807 H          1 MOL1         0.3769
      12    C4      18.944941   14.198457   21.539746 C.3        1 MOL1         0.1018
      13    H6      18.987638   13.104889   21.629474 H          1 MOL1         0.0783
      14    C5      18.203886   14.600532   20.229245 C.3        1 MOL1         0.1043
      15    H7      18.385078   15.667028   20.045537 H          1 MOL1         0.0783
      16    O4      16.777403   14.382466   20.368878 O.3        1 MOL1        -0.3740
      17    C6      18.679722   13.829401   18.974136 C.3        1 MOL1         0.0138
      18    H8      19.668672   14.205947   18.682720 H          1 MOL1         0.0794
      19    H9      17.993180   14.052577   18.146495 H          1 MOL1         0.0794
      20    O5      18.742929   12.415285   19.198799 O.3        1 MOL1        -0.5486
      21    H10     18.982491   11.989052   18.347145 H          1 MOL1         0.3769
      22    C7      14.825224   20.223622   20.599180 C.3        1 MOL1         0.2972
      23    H11     14.195402   21.076278   20.314759 H          1 MOL1         0.0751
      24    O6      16.190381   20.637075   20.829445 O.3        1 MOL1        -0.3740
      25    C8      14.256493   19.503032   21.853593 C.3        1 MOL1         0.1003
      26    H12     13.270136   19.108850   21.575969 H          1 MOL1         0.0783
      27    O7      14.096363   20.390351   22.969802 O.3        1 MOL1        -0.5519
      28    H13     15.004831   20.680513   23.236085 H          1 MOL1         0.3769
      29    C9      15.154196   18.303125   22.235931 C.3        1 MOL1         0.1053
      30    H14     16.136998   18.692300   22.530495 H          1 MOL1         0.0783
      31    O8      14.568927   17.591465   23.330738 O.3        1 MOL1        -0.5519
      32    H15     14.249144   18.287321   23.947751 H          1 MOL1         0.3769
      33    C10     15.345383   17.351311   21.029914 C.3        1 MOL1         0.1018
      34    H16     14.410472   16.797571   20.873057 H          1 MOL1         0.0783
      35    C11     15.711928   18.105362   19.720547 C.3        1 MOL1         0.1043
      36    H17     16.748890   18.453292   19.797173 H          1 MOL1         0.0783
      37    O9      14.840034   19.250349   19.532945 O.3        1 MOL1        -0.3740
      38    C12     15.618769   17.209259   18.462527 C.3        1 MOL1         0.0138
      39    H18     16.408987   16.448867   18.517872 H          1 MOL1         0.0794
      40    H19     15.818672   17.826157   17.576283 H          1 MOL1         0.0794
      41    O10     14.340376   16.571152   18.347433 O.3        1 MOL1        -0.5486
      42    H20     14.348704   16.033038   17.526236 H          1 MOL1         0.3769
      43    C13     18.569964   23.895700   21.821132 C.3        1 MOL1         0.2972
      44    H21     18.967132   24.868221   22.138945 H          1 MOL1         0.0751
      45    O11     19.586168   23.083378   21.198710 O.3        1 MOL1        -0.3740
      46    C14     17.977881   23.129227   23.032502 C.3        1 MOL1         0.1003
      47    H22     17.162534   23.742213   23.438443 H          1 MOL1         0.0783
      48    O12     18.956712   22.903148   24.059991 O.3        1 MOL1        -0.5519
      49    H23     19.699379   23.534323   23.900404 H          1 MOL1         0.3769
      50    C15     17.388911   21.776950   22.579107 C.3        1 MOL1         0.1053
      51    H24     18.223495   21.164404   22.221728 H          1 MOL1         0.0783
      52    O13     16.765503   21.146347   23.701658 O.3        1 MOL1        -0.5519
      53    H25     17.393025   21.299603   24.444037 H          1 MOL1         0.3769
      54    C16     16.386976   21.945602   21.409867 C.3        1 MOL1         0.1018
      55    H26     15.453191   22.367426   21.804278 H          1 MOL1         0.0783
      56    C17     16.947540   22.868249   20.290182 C.3        1 MOL1         0.1043
      57    H27     17.741579   22.321506   19.764888 H          1 MOL1         0.0783
      58    O14     17.505441   24.079676   20.863134 O.3        1 MOL1        -0.3740
      59    C18     15.889702   23.267835   19.233720 C.3        1 MOL1         0.0138
      60    H28     15.650704   22.382774   18.628649 H          1 MOL1         0.0794
      61    H29     16.332106   24.013824   18.559963 H          1 MOL1         0.0794
      62    O15     14.694026   23.783499   19.832547 O.3        1 MOL1        -0.5486
      63    H30     14.106597   24.091113   19.107980 H          1 MOL1         0.3769
      64    C19     23.699239   22.832184   20.904845 C.3        1 MOL1         0.2972
      65    H31     24.772446   22.961574   20.714065 H          1 MOL1         0.0751
      66    O16     23.374249   21.461159   21.215668 O.3        1 MOL1        -0.3740
      67    C20     23.218118   23.742819   22.063499 C.3        1 MOL1         0.1003
      68    H32     23.369209   24.780964   21.739727 H          1 MOL1         0.0783
      69    O17     23.968539   23.520938   23.266860 O.3        1 MOL1        -0.5519
      70    H33     23.851119   22.569084   23.515396 H          1 MOL1         0.3769
      71    C21     21.704107   23.542002   22.321288 C.3        1 MOL1         0.1053
      72    H34     21.555153   22.522976   22.705314 H          1 MOL1         0.0783
      73    O18     21.277426   24.497719   23.298565 O.3        1 MOL1        -0.5519
      74    H35     22.011435   24.534390   23.953838 H          1 MOL1         0.3769
      75    C22     20.878953   23.693853   21.011259 C.3        1 MOL1         0.1018
      76    H36     20.787084   24.759694   20.766963 H          1 MOL1         0.0783
      77    C23     21.518424   22.949167   19.806553 C.3        1 MOL1         0.1043
      78    H37     21.366122   21.875086   19.957168 H          1 MOL1         0.0783
      79    O19     22.940641   23.213177   19.738142 O.3        1 MOL1        -0.3740
      80    C24     20.875243   23.302031   18.442745 C.3        1 MOL1         0.0138
      81    H38     19.874281   22.851874   18.401439 H          1 MOL1         0.0794
      82    H39     21.472080   22.837192   17.646862 H          1 MOL1         0.0794
      83    O20     20.779589   24.714673   18.222970 O.3        1 MOL1        -0.5486
      84    H40     20.046777   25.052257   18.781407 H          1 MOL1         0.3769
      85    C25     24.900491   17.750058   22.097451 C.3        1 MOL1         0.2972
      86    H41     25.500522   16.871963   22.367602 H          1 MOL1         0.0751
      87    O21     23.626462   17.374981   21.537490 O.3        1 MOL1        -0.3740
      88    C26     24.646510   18.633421   23.343828 C.3        1 MOL1         0.1003
      89    H42     25.626200   18.957860   23.718263 H          1 MOL1         0.0783
      90    O22     23.962424   17.896987   24.372361 O.3        1 MOL1        -0.5519
      91    H43     24.111353   16.938568   24.189289 H          1 MOL1         0.3769
      92    C27     23.829428   19.890214   22.963825 C.3        1 MOL1         0.1053
      93    H44     22.823413   19.562261   22.683205 H          1 MOL1         0.0783
      94    O23     23.744909   20.755276   24.099286 O.3        1 MOL1        -0.5519
      95    H45     23.529463   20.157358   24.850199 H          1 MOL1         0.3769
      96    C28     24.433035   20.642876   21.750790 C.3        1 MOL1         0.1018
      97    H46     25.286137   21.241380   22.097141 H          1 MOL1         0.0783
      98    C29     24.873457   19.690672   20.601657 C.3        1 MOL1         0.1043
      99    H47     23.967813   19.330701   20.096719 H          1 MOL1         0.0783
     100    O24     25.601583   18.552262   21.125407 O.3        1 MOL1        -0.3740
     101    C30     25.747375   20.382112   19.527903 C.3        1 MOL1         0.0138
     102    H48     25.113142   21.070695   18.953241 H          1 MOL1         0.0794
     103    H49     26.114647   19.617982   18.829762 H          1 MOL1         0.0794
     104    O25     26.845600   21.100232   20.104093 O.3        1 MOL1        -0.5486
     105    H50     27.397218   21.442795   19.367106 H          1 MOL1         0.3769
     106    C31     21.326982   13.941393   21.034173 C.3        1 MOL1         0.2972
     107    H51     20.961399   12.943695   20.758773 H          1 MOL1         0.0751
     108    O26     20.261203   14.785529   21.515479 O.3        1 MOL1        -0.3740
     109    C32     22.383582   13.838878   22.163970 C.3        1 MOL1         0.1003
     110    H52     23.190236   13.188565   21.801328 H          1 MOL1         0.0783
     111    O27     21.800531   13.263377   23.345076 O.3        1 MOL1        -0.5519
     112    H53     20.914683   13.685692   23.467701 H          1 MOL1         0.3769
     113    C33     22.996980   15.223097   22.497452 C.3        1 MOL1         0.1053
     114    H54     22.223614   15.822408   22.984276 H          1 MOL1         0.0783
     115    O28     24.089817   15.044275   23.404869 O.3        1 MOL1        -0.5519
     116    H55     23.778935   14.365237   24.045860 H          1 MOL1         0.3769
     117    C34     23.449553   15.981902   21.219236 C.3        1 MOL1         0.1018
     118    H56     24.377535   15.533907   20.841343 H          1 MOL1         0.0783
     119    C35     22.370394   15.942907   20.105604 C.3        1 MOL1         0.1043
     120    H57     21.512016   16.540856   20.435523 H          1 MOL1         0.0783
     121    O29     21.942434   14.579249   19.895157 O.3        1 MOL1        -0.3740
     122    C36     22.840530   16.538813   18.755071 C.3        1 MOL1         0.0138
     123    H58     22.835984   17.633534   18.837692 H          1 MOL1         0.0794
     124    H59     22.108889   16.270774   17.981426 H          1 MOL1         0.0794
     125    O30     24.147103   16.092350   18.373534 O.3        1 MOL1        -0.5486
     126    H60     24.792190   16.523709   18.974587 H          1 MOL1         0.3769
     127    N1      19.102349   16.556720   25.723364 N.4        1 MOL1        -0.5940
     128    H1      18.182317   16.927927   25.466072 H          1 MOL1         0.3649
     129    H2      19.080232   16.353138   26.727688 H          1 MOL1         0.3649
     130    H3      19.209636   15.658343   25.228768 H          1 MOL1         0.3649
     131    C1      20.221506   17.513066   25.362589 C.3        1 MOL1         0.0207
     132    H4      21.155801   17.082059   25.733227 H          1 MOL1         0.0950
     133    H5      20.051479   18.461368   25.879296 H          1 MOL1         0.0950
     134    C2      20.342267   17.749466   23.848057 C.3        1 MOL1        -0.1415
     135    H6      21.291075   18.259785   23.650300 H          1 MOL1         0.0976
     136    H7      20.392743   16.781854   23.341037 H          1 MOL1         0.0976
     137    C3      19.174485   18.576394   23.266281 C.3        1 MOL1        -0.1375
     138    H8      19.237411   19.607850   23.638501 H          1 MOL1         0.0976
     139    H9      18.218576   18.175608   23.627628 H          1 MOL1         0.0976
     140    C4      19.145497   18.567688   21.719055 C.3        1 MOL1        -0.1375
     141    H10     19.070764   17.534259   21.358092 H          1 MOL1         0.0976
     142    H11     18.231508   19.071304   21.386832 H          1 MOL1         0.0976
     143    C5      20.363470   19.254022   21.063360 C.3        1 MOL1        -0.1350
     144    H12     21.279147   18.704434   21.309858 H          1 MOL1         0.0976
     145    H13     20.482473   20.269465   21.466633 H          1 MOL1         0.0976
     146    C6      20.211523   19.315379   19.528866 C.3        1 MOL1        -0.2365
     147    H14     19.351992   19.937250   19.245670 H          1 MOL1         0.0987
     148    H15     20.061620   18.313415   19.106751 H          1 MOL1         0.0987
     149    H16     21.109242   19.743866   19.065597 H          1 MOL1         0.0987
@<TRIPOS>BOND
    1     1     2    1
    2     1     3    1
    3     1     4    1
    4     4     5    1
    5     4     6    1
    6     6     7    1
    7     4     8    1
    8     8     9    1
    9     8    10    1
   10    10    11    1
   11     8    12    1
   12    12    13    1
   13    12    14    1
   14    14    15    1
   15     1    16    1
   16    14    16    1
   17    14    17    1
   18    17    18    1
   19    17    19    1
   20    17    20    1
   21    20    21    1
   22    22    23    1
   23    22    24    1
   24    22    25    1
   25    25    26    1
   26    25    27    1
   27    27    28    1
   28    25    29    1
   29    29    30    1
   30    29    31    1
   31    31    32    1
   32     3    33    1
   33    29    33    1
   34    33    34    1
   35    33    35    1
   36    35    36    1
   37    22    37    1
   38    35    37    1
   39    35    38    1
   40    38    39    1
   41    38    40    1
   42    38    41    1
   43    41    42    1
   44    43    44    1
   45    43    45    1
   46    43    46    1
   47    46    47    1
   48    46    48    1
   49    48    49    1
   50    46    50    1
   51    50    51    1
   52    50    52    1
   53    52    53    1
   54    24    54    1
   55    50    54    1
   56    54    55    1
   57    54    56    1
   58    56    57    1
   59    43    58    1
   60    56    58    1
   61    56    59    1
   62    59    60    1
   63    59    61    1
   64    59    62    1
   65    62    63    1
   66    64    65    1
   67    64    66    1
   68    64    67    1
   69    67    68    1
   70    67    69    1
   71    69    70    1
   72    67    71    1
   73    71    72    1
   74    71    73    1
   75    73    74    1
   76    45    75    1
   77    71    75    1
   78    75    76    1
   79    75    77    1
   80    77    78    1
   81    64    79    1
   82    77    79    1
   83    77    80    1
   84    80    81    1
   85    80    82    1
   86    80    83    1
   87    83    84    1
   88    85    86    1
   89    85    87    1
   90    85    88    1
   91    88    89    1
   92    88    90    1
   93    90    91    1
   94    88    92    1
   95    92    93    1
   96    92    94    1
   97    94    95    1
   98    66    96    1
   99    92    96    1
  100    96    97    1
  101    96    98    1
  102    98    99    1
  103    85   100    1
  104    98   100    1
  105    98   101    1
  106   101   102    1
  107   101   103    1
  108   101   104    1
  109   104   105    1
  110   106   107    1
  111    12   108    1
  112   106   108    1
  113   106   109    1
  114   109   110    1
  115   109   111    1
  116   111   112    1
  117   109   113    1
  118   113   114    1
  119   113   115    1
  120   115   116    1
  121    87   117    1
  122   113   117    1
  123   117   118    1
  124   117   119    1
  125   119   120    1
  126   106   121    1
  127   119   121    1
  128   119   122    1
  129   122   123    1
  130   122   124    1
  131   122   125    1
  132   125   126    1
  133   127   128    1
  134   127   129    1
  135   127   130    1
  136   127   131    1
  137   131   132    1
  138   131   133    1
  139   131   134    1
  140   134   135    1
  141   134   136    1
  142   134   137    1
  143   137   138    1
  144   137   139    1
  145   137   140    1
  146   140   141    1
  147   140   142    1
  148   140   143    1
  149   143   144    1
  150   143   145    1
  151   143   146    1
  152   146   147    1
  153   146   148    1
  154   146   149    1
@<TRIPOS>SUBSTRUCTURE
       1 MOL1            1 RESIDUE      1      MOL     
       2 MOL1          149 RESIDUE      1      MOL     
@<SCITEGIC>MOL_PROPERTY
feprocess Rank
SciTegic.value.IntegerValue
5

@<SCITEGIC>MOL_PROPERTY
Conf_Id
SciTegic.value.IntegerValue
328

@<SCITEGIC>MOL_PROPERTY
Probability
SciTegic.value.DoubleValue
7.54

@<SCITEGIC>MOL_PROPERTY
G
SciTegic.value.DoubleValue
568.681

@<SCITEGIC>MOL_PROPERTY
E
SciTegic.value.DoubleValue
370.101

@<SCITEGIC>MOL_PROPERTY
-TS
SciTegic.value.DoubleValue
198.580

@<SCITEGIC>MOL_PROPERTY
U+W
SciTegic.value.DoubleValue
238.647

@<SCITEGIC>MOL_PROPERTY
U
SciTegic.value.DoubleValue
324.143

@<SCITEGIC>MOL_PROPERTY
W
SciTegic.value.DoubleValue
-85.496

@<SCITEGIC>MOL_PROPERTY
W(PB)
SciTegic.value.DoubleValue
-91.593

@<SCITEGIC>MOL_PROPERTY
W(SA)
SciTegic.value.DoubleValue
6.097

@<SCITEGIC>MOL_PROPERTY
Valence
SciTegic.value.DoubleValue
146.566

@<SCITEGIC>MOL_PROPERTY
Coulomb
SciTegic.value.DoubleValue
202.736

@<SCITEGIC>MOL_PROPERTY
VdW
SciTegic.value.DoubleValue
-25.159

@<SCITEGIC>MOL_PROPERTY
VdW6
SciTegic.value.DoubleValue
-179.433

@<SCITEGIC>MOL_PROPERTY
VdW12
SciTegic.value.DoubleValue
154.275

@<SCITEGIC>MOL_PROPERTY
Bond
SciTegic.value.DoubleValue
4.648

@<SCITEGIC>MOL_PROPERTY
Angle
SciTegic.value.DoubleValue
11.610

@<SCITEGIC>MOL_PROPERTY
Pdih
SciTegic.value.DoubleValue
130.308

@<SCITEGIC>MOL_PROPERTY
Idih
SciTegic.value.DoubleValue
0.000

@<SCITEGIC>MOL_PROPERTY
Tether
SciTegic.value.DoubleValue
0.000

@<TRIPOS>MOLECULE
CD_guest-2_fast_vm2_rndm.mol2 : feprocess host+ligand conformer 6
         149         154           2
SMALL
USER_CHARGES
 
@<TRIPOS>ATOM
       1    C1      16.472661   15.420630   22.050760 C.3        1 MOL1         0.2972
       2    H1      15.428253   15.358150   22.381698 H          1 MOL1         0.0751
       3    O1      16.734524   16.654253   21.350406 O.3        1 MOL1        -0.3740
       4    C2      17.426757   15.320768   23.267692 C.3        1 MOL1         0.1003
       5    H2      17.234948   14.353500   23.750283 H          1 MOL1         0.0783
       6    O2      17.190271   16.376655   24.213608 O.3        1 MOL1        -0.5519
       7    H3      16.283471   16.726414   24.037742 H          1 MOL1         0.3769
       8    C3      18.903115   15.350303   22.813655 C.3        1 MOL1         0.1053
       9    H4      19.107674   16.344138   22.405326 H          1 MOL1         0.0783
      10    O3      19.735454   15.127420   23.953899 O.3        1 MOL1        -0.5519
      11    H5      19.345450   15.698544   24.654077 H          1 MOL1         0.3769
      12    C4      19.191397   14.312802   21.698191 C.3        1 MOL1         0.1018
      13    H6      19.253432   13.314258   22.150844 H          1 MOL1         0.0783
      14    C5      18.105702   14.324454   20.584166 C.3        1 MOL1         0.1043
      15    H7      18.235574   15.239747   19.993009 H          1 MOL1         0.0783
      16    O4      16.776464   14.324877   21.162523 O.3        1 MOL1        -0.3740
      17    C6      18.216470   13.130287   19.606253 C.3        1 MOL1         0.0138
      18    H8      19.112986   13.269681   18.987004 H          1 MOL1         0.0794
      19    H9      17.348849   13.146644   18.933086 H          1 MOL1         0.0794
      20    O5      18.291886   11.874403   20.292449 O.3        1 MOL1        -0.5486
      21    H10     18.279995   11.163235   19.615127 H          1 MOL1         0.3769
      22    C7      14.790050   20.283761   20.659125 C.3        1 MOL1         0.2972
      23    H11     14.070551   21.060281   20.371454 H          1 MOL1         0.0751
      24    O6      16.073481   20.839915   21.009479 O.3        1 MOL1        -0.3740
      25    C8      14.263595   19.490659   21.881385 C.3        1 MOL1         0.1003
      26    H12     13.318173   19.019704   21.581834 H          1 MOL1         0.0783
      27    O7      14.017701   20.359712   22.998135 O.3        1 MOL1        -0.5519
      28    H13     14.726439   21.051895   23.001051 H          1 MOL1         0.3769
      29    C9      15.248788   18.363450   22.276151 C.3        1 MOL1         0.1053
      30    H14     16.177811   18.828529   22.631985 H          1 MOL1         0.0783
      31    O8      14.659027   17.590470   23.327057 O.3        1 MOL1        -0.5519
      32    H15     14.229516   18.254587   23.913803 H          1 MOL1         0.3769
      33    C10     15.585734   17.471739   21.048650 C.3        1 MOL1         0.1018
      34    H16     14.711744   16.855140   20.802299 H          1 MOL1         0.0783
      35    C11     15.973658   18.320029   19.807142 C.3        1 MOL1         0.1043
      36    H17     16.938251   18.796900   20.011048 H          1 MOL1         0.0783
      37    O9      14.981404   19.349412   19.575510 O.3        1 MOL1        -0.3740
      38    C12     16.147009   17.487287   18.512773 C.3        1 MOL1         0.0138
      39    H18     17.092666   16.934045   18.578688 H          1 MOL1         0.0794
      40    H19     16.232687   18.176617   17.662467 H          1 MOL1         0.0794
      41    O10     15.070073   16.568740   18.294939 O.3        1 MOL1        -0.5486
      42    H20     15.160999   15.846046   18.952753 H          1 MOL1         0.3769
      43    C13     18.431360   24.216829   20.988181 C.3        1 MOL1         0.2972
      44    H21     18.890953   25.208441   20.885872 H          1 MOL1         0.0751
      45    O11     19.412552   23.201887   21.295283 O.3        1 MOL1        -0.3740
      46    C14     17.337873   24.212535   22.086928 C.3        1 MOL1         0.1003
      47    H22     16.538280   24.886172   21.751912 H          1 MOL1         0.0783
      48    O12     17.839055   24.682974   23.346502 O.3        1 MOL1        -0.5519
      49    H23     18.593921   24.094838   23.602005 H          1 MOL1         0.3769
      50    C15     16.737125   22.793142   22.226111 C.3        1 MOL1         0.1053
      51    H24     17.525393   22.119247   22.588719 H          1 MOL1         0.0783
      52    O13     15.658568   22.820154   23.165197 O.3        1 MOL1        -0.5519
      53    H25     15.983344   23.370711   23.912704 H          1 MOL1         0.3769
      54    C16     16.230616   22.264460   20.859306 C.3        1 MOL1         0.1018
      55    H26     15.281194   22.765587   20.631404 H          1 MOL1         0.0783
      56    C17     17.241182   22.503347   19.698502 C.3        1 MOL1         0.1043
      57    H27     18.071297   21.798382   19.811339 H          1 MOL1         0.0783
      58    O14     17.775691   23.849070   19.755521 O.3        1 MOL1        -0.3740
      59    C18     16.645189   22.265799   18.289404 C.3        1 MOL1         0.0138
      60    H28     16.470232   21.189709   18.155860 H          1 MOL1         0.0794
      61    H29     17.393457   22.566066   17.543952 H          1 MOL1         0.0794
      62    O15     15.426627   22.988564   18.075117 O.3        1 MOL1        -0.5486
      63    H30     14.691219   22.451041   18.436903 H          1 MOL1         0.3769
      64    C19     23.326462   22.526149   22.380240 C.3        1 MOL1         0.2972
      65    H31     24.372596   22.572633   22.709677 H          1 MOL1         0.0751
      66    O16     23.001009   21.238344   21.822613 O.3        1 MOL1        -0.3740
      67    C20     22.383814   22.785528   23.577706 C.3        1 MOL1         0.1003
      68    H32     22.595271   23.795694   23.951978 H          1 MOL1         0.0783
      69    O17     22.615381   21.828541   24.625489 O.3        1 MOL1        -0.5519
      70    H33     23.393079   21.283291   24.352899 H          1 MOL1         0.3769
      71    C21     20.908224   22.732695   23.122618 C.3        1 MOL1         0.1053
      72    H34     20.691568   21.701895   22.826976 H          1 MOL1         0.0783
      73    O18     20.068682   23.095685   24.220830 O.3        1 MOL1        -0.5519
      74    H35     20.437270   22.599884   24.986790 H          1 MOL1         0.3769
      75    C22     20.644200   23.649425   21.899046 C.3        1 MOL1         0.1018
      76    H36     20.581471   24.689122   22.247038 H          1 MOL1         0.0783
      77    C23     21.736789   23.516938   20.798815 C.3        1 MOL1         0.1043
      78    H37     21.580580   22.557583   20.290921 H          1 MOL1         0.0783
      79    O19     23.066965   23.528982   21.376496 O.3        1 MOL1        -0.3740
      80    C24     21.659750   24.621516   19.717962 C.3        1 MOL1         0.0138
      81    H38     20.760314   24.452396   19.110384 H          1 MOL1         0.0794
      82    H39     22.527047   24.522008   19.051476 H          1 MOL1         0.0794
      83    O20     21.618495   25.934401   20.290707 O.3        1 MOL1        -0.5486
      84    H40     21.647655   26.582465   19.553258 H          1 MOL1         0.3769
      85    C25     24.968784   17.685597   20.860450 C.3        1 MOL1         0.2972
      86    H41     25.696651   16.947979   20.498603 H          1 MOL1         0.0751
      87    O21     23.714968   17.072834   21.220428 O.3        1 MOL1        -0.3740
      88    C26     25.502748   18.410485   22.123906 C.3        1 MOL1         0.1003
      89    H42     26.437117   18.915157   21.845757 H          1 MOL1         0.0783
      90    O22     25.768222   17.473763   23.180796 O.3        1 MOL1        -0.5519
      91    H43     25.019638   16.825222   23.199695 H          1 MOL1         0.3769
      92    C27     24.497377   19.489564   22.598244 C.3        1 MOL1         0.1053
      93    H44     23.585432   18.978789   22.931725 H          1 MOL1         0.0783
      94    O23     25.060806   20.228090   23.687621 O.3        1 MOL1        -0.5519
      95    H45     25.487267   19.550115   24.259207 H          1 MOL1         0.3769
      96    C28     24.127450   20.437832   21.428719 C.3        1 MOL1         0.1018
      97    H46     24.999947   21.058213   21.184838 H          1 MOL1         0.0783
      98    C29     23.695859   19.655174   20.162497 C.3        1 MOL1         0.1043
      99    H47     22.753647   19.137764   20.380802 H          1 MOL1         0.0783
     100    O24     24.713745   18.678547   19.841128 O.3        1 MOL1        -0.3740
     101    C30     23.446772   20.554031   18.923596 C.3        1 MOL1         0.0138
     102    H48     22.422973   20.943490   18.979198 H          1 MOL1         0.0794
     103    H49     23.505131   19.932103   18.020484 H          1 MOL1         0.0794
     104    O25     24.363692   21.651123   18.828959 O.3        1 MOL1        -0.5486
     105    H50     24.158415   22.269547   19.565539 H          1 MOL1         0.3769
     106    C31     21.442187   13.679949   20.920907 C.3        1 MOL1         0.2972
     107    H51     20.994477   12.689016   20.771126 H          1 MOL1         0.0751
     108    O26     20.429261   14.702237   21.065799 O.3        1 MOL1        -0.3740
     109    C32     22.394371   13.689442   22.146732 C.3        1 MOL1         0.1003
     110    H52     23.233875   13.023464   21.907664 H          1 MOL1         0.0783
     111    O27     21.754826   13.209150   23.337577 O.3        1 MOL1        -0.5519
     112    H53     21.038139   13.854940   23.559607 H          1 MOL1         0.3769
     113    C33     22.963279   15.112355   22.357150 C.3        1 MOL1         0.1053
     114    H54     22.129704   15.778186   22.615152 H          1 MOL1         0.0783
     115    O28     23.918234   15.103910   23.423198 O.3        1 MOL1        -0.5519
     116    H55     23.504718   14.567659   24.135908 H          1 MOL1         0.3769
     117    C34     23.631386   15.644085   21.064409 C.3        1 MOL1         0.1018
     118    H56     24.621638   15.178008   20.976365 H          1 MOL1         0.0783
     119    C35     22.797949   15.372754   19.778678 C.3        1 MOL1         0.1043
     120    H57     21.965813   16.084358   19.767237 H          1 MOL1         0.0783
     121    O29     22.255203   14.028369   19.781251 O.3        1 MOL1        -0.3740
     122    C36     23.595805   15.578070   18.468694 C.3        1 MOL1         0.0138
     123    H58     23.781614   16.652249   18.336594 H          1 MOL1         0.0794
     124    H59     22.974831   15.248745   17.624894 H          1 MOL1         0.0794
     125    O30     24.840243   14.867647   18.477741 O.3        1 MOL1        -0.5486
     126    H60     25.263589   14.996607   17.601026 H          1 MOL1         0.3769
     127    N1      20.065861   17.758156   16.510088 N.4        1 MOL1        -0.5940
     128    H1      19.161481   18.143074   16.220280 H          1 MOL1         0.3649
     129    H2      20.228422   16.920792   15.940679 H          1 MOL1         0.3649
     130    H3      20.782754   18.441254   16.245931 H          1 MOL1         0.3649
     131    C1      20.100680   17.445281   17.991686 C.3        1 MOL1         0.0207
     132    H4      21.078234   17.014702   18.218266 H          1 MOL1         0.0950
     133    H5      19.336526   16.690541   18.195578 H          1 MOL1         0.0950
     134    C2      19.860946   18.681157   18.875904 C.3        1 MOL1        -0.1415
     135    H6      20.648997   19.421300   18.692709 H          1 MOL1         0.0976
     136    H7      18.910676   19.152267   18.592625 H          1 MOL1         0.0976
     137    C3      19.828556   18.310829   20.374914 C.3        1 MOL1        -0.1375
     138    H8      20.779715   17.847488   20.666434 H          1 MOL1         0.0976
     139    H9      19.048630   17.558536   20.538958 H          1 MOL1         0.0976
     140    C4      19.550433   19.545227   21.263807 C.3        1 MOL1        -0.1375
     141    H10     20.362943   20.274114   21.147648 H          1 MOL1         0.0976
     142    H11     18.639281   20.038856   20.913065 H          1 MOL1         0.0976
     143    C5      19.350301   19.208880   22.759788 C.3        1 MOL1        -0.1350
     144    H12     18.995370   20.107562   23.283153 H          1 MOL1         0.0976
     145    H13     18.551021   18.464989   22.871395 H          1 MOL1         0.0976
     146    C6      20.636582   18.708728   23.451655 C.3        1 MOL1        -0.2365
     147    H14     21.421928   19.472471   23.411398 H          1 MOL1         0.0987
     148    H15     21.020637   17.793536   22.987012 H          1 MOL1         0.0987
     149    H16     20.441902   18.487663   24.508855 H          1 MOL1         0.0987
@<TRIPOS>BOND
    1     1     2    1
    2     1     3    1
    3     1     4    1
    4     4     5    1
    5     4     6    1
    6     6     7    1
    7     4     8    1
    8     8     9    1
    9     8    10    1
   10    10    11    1
   11     8    12    1
   12    12    13    1
   13    12    14    1
   14    14    15    1
   15     1    16    1
   16    14    16    1
   17    14    17    1
   18    17    18    1
   19    17    19    1
   20    17    20    1
   21    20    21    1
   22    22    23    1
   23    22    24    1
   24    22    25    1
   25    25    26    1
   26    25    27    1
   27    27    28    1
   28    25    29    1
   29    29    30    1
   30    29    31    1
   31    31    32    1
   32     3    33    1
   33    29    33    1
   34    33    34    1
   35    33    35    1
   36    35    36    1
   37    22    37    1
   38    35    37    1
   39    35    38    1
   40    38    39    1
   41    38    40    1
   42    38    41    1
   43    41    42    1
   44    43    44    1
   45    43    45    1
   46    43    46    1
   47    46    47    1
   48    46    48    1
   49    48    49    1
   50    46    50    1
   51    50    51    1
   52    50    52    1
   53    52    53    1
   54    24    54    1
   55    50    54    1
   56    54    55    1
   57    54    56    1
   58    56    57    1
   59    43    58    1
   60    56    58    1
   61    56    59    1
   62    59    60    1
   63    59    61    1
   64    59    62    1
   65    62    63    1
   66    64    65    1
   67    64    66    1
   68    64    67    1
   69    67    68    1
   70    67    69    1
   71    69    70    1
   72    67    71    1
   73    71    72    1
   74    71    73    1
   75    73    74    1
   76    45    75    1
   77    71    75    1
   78    75    76    1
   79    75    77    1
   80    77    78    1
   81    64    79    1
   82    77    79    1
   83    77    80    1
   84    80    81    1
   85    80    82    1
   86    80    83    1
   87    83    84    1
   88    85    86    1
   89    85    87    1
   90    85    88    1
   91    88    89    1
   92    88    90    1
   93    90    91    1
   94    88    92    1
   95    92    93    1
   96    92    94    1
   97    94    95    1
   98    66    96    1
   99    92    96    1
  100    96    97    1
  101    96    98    1
  102    98    99    1
  103    85   100    1
  104    98   100    1
  105    98   101    1
  106   101   102    1
  107   101   103    1
  108   101   104    1
  109   104   105    1
  110   106   107    1
  111    12   108    1
  112   106   108    1
  113   106   109    1
  114   109   110    1
  115   109   111    1
  116   111   112    1
  117   109   113    1
  118   113   114    1
  119   113   115    1
  120   115   116    1
  121    87   117    1
  122   113   117    1
  123   117   118    1
  124   117   119    1
  125   119   120    1
  126   106   121    1
  127   119   121    1
  128   119   122    1
  129   122   123    1
  130   122   124    1
  131   122   125    1
  132   125   126    1
  133   127   128    1
  134   127   129    1
  135   127   130    1
  136   127   131    1
  137   131   132    1
  138   131   133    1
  139   131   134    1
  140   134   135    1
  141   134   136    1
  142   134   137    1
  143   137   138    1
  144   137   139    1
  145   137   140    1
  146   140   141    1
  147   140   142    1
  148   140   143    1
  149   143   144    1
  150   143   145    1
  151   143   146    1
  152   146   147    1
  153   146   148    1
  154   146   149    1
@<TRIPOS>SUBSTRUCTURE
       1 MOL1            1 RESIDUE      1      MOL     
       2 MOL1          149 RESIDUE      1      MOL     
@<SCITEGIC>MOL_PROPERTY
feprocess Rank
SciTegic.value.IntegerValue
6

@<SCITEGIC>MOL_PROPERTY
Conf_Id
SciTegic.value.IntegerValue
904

@<SCITEGIC>MOL_PROPERTY
Probability
SciTegic.value.DoubleValue
7.28

@<SCITEGIC>MOL_PROPERTY
G
SciTegic.value.DoubleValue
568.702

@<SCITEGIC>MOL_PROPERTY
E
SciTegic.value.DoubleValue
371.176

@<SCITEGIC>MOL_PROPERTY
-TS
SciTegic.value.DoubleValue
197.526

@<SCITEGIC>MOL_PROPERTY
U+W
SciTegic.value.DoubleValue
239.722

@<SCITEGIC>MOL_PROPERTY
U
SciTegic.value.DoubleValue
336.443

@<SCITEGIC>MOL_PROPERTY
W
SciTegic.value.DoubleValue
-96.721

@<SCITEGIC>MOL_PROPERTY
W(PB)
SciTegic.value.DoubleValue
-102.810

@<SCITEGIC>MOL_PROPERTY
W(SA)
SciTegic.value.DoubleValue
6.089

@<SCITEGIC>MOL_PROPERTY
Valence
SciTegic.value.DoubleValue
147.194

@<SCITEGIC>MOL_PROPERTY
Coulomb
SciTegic.value.DoubleValue
216.170

@<SCITEGIC>MOL_PROPERTY
VdW
SciTegic.value.DoubleValue
-26.920

@<SCITEGIC>MOL_PROPERTY
VdW6
SciTegic.value.DoubleValue
-178.593

@<SCITEGIC>MOL_PROPERTY
VdW12
SciTegic.value.DoubleValue
151.672

@<SCITEGIC>MOL_PROPERTY
Bond
SciTegic.value.DoubleValue
4.589

@<SCITEGIC>MOL_PROPERTY
Angle
SciTegic.value.DoubleValue
11.718

@<SCITEGIC>MOL_PROPERTY
Pdih
SciTegic.value.DoubleValue
130.887

@<SCITEGIC>MOL_PROPERTY
Idih
SciTegic.value.DoubleValue
0.000

@<SCITEGIC>MOL_PROPERTY
Tether
SciTegic.value.DoubleValue
0.000

@<TRIPOS>MOLECULE
CD_guest-2_fast_vm2_rndm.mol2 : feprocess host+ligand conformer 7
         149         154           2
SMALL
USER_CHARGES
 
@<TRIPOS>ATOM
       1    C1      16.166322   15.151633   21.717967 C.3        1 MOL1         0.2972
       2    H1      15.100976   14.987965   21.925244 H          1 MOL1         0.0751
       3    O1      16.422207   16.493626   21.248529 O.3        1 MOL1        -0.3740
       4    C2      17.010627   14.888377   22.992038 C.3        1 MOL1         0.1003
       5    H2      16.882492   13.831331   23.259518 H          1 MOL1         0.0783
       6    O2      16.587678   15.706776   24.093947 O.3        1 MOL1        -0.5519
       7    H3      15.941600   16.367372   23.740944 H          1 MOL1         0.3769
       8    C3      18.506659   15.130239   22.699583 C.3        1 MOL1         0.1053
       9    H4      18.617873   16.196957   22.481157 H          1 MOL1         0.0783
      10    O3      19.282517   14.794205   23.854477 O.3        1 MOL1        -0.5519
      11    H5      18.755789   15.139819   24.610203 H          1 MOL1         0.3769
      12    C4      18.989598   14.323765   21.466922 C.3        1 MOL1         0.1018
      13    H6      19.119787   13.274713   21.764134 H          1 MOL1         0.0783
      14    C5      18.003813   14.420989   20.265385 C.3        1 MOL1         0.1043
      15    H7      18.101247   15.423238   19.828425 H          1 MOL1         0.0783
      16    O4      16.634539   14.232729   20.708072 O.3        1 MOL1        -0.3740
      17    C6      18.297629   13.403452   19.137195 C.3        1 MOL1         0.0138
      18    H8      19.216676   13.711434   18.620503 H          1 MOL1         0.0794
      19    H9      17.480986   13.448668   18.404184 H          1 MOL1         0.0794
      20    O5      18.445317   12.068469   19.636789 O.3        1 MOL1        -0.5486
      21    H10     18.540504   11.469608   18.864129 H          1 MOL1         0.3769
      22    C7      14.729293   20.192799   20.568139 C.3        1 MOL1         0.2972
      23    H11     14.105611   21.056937   20.305710 H          1 MOL1         0.0751
      24    O6      16.105371   20.585713   20.773641 O.3        1 MOL1        -0.3740
      25    C8      14.172525   19.461896   21.820669 C.3        1 MOL1         0.1003
      26    H12     13.179847   19.078939   21.549795 H          1 MOL1         0.0783
      27    O7      14.031737   20.337771   22.948429 O.3        1 MOL1        -0.5519
      28    H13     14.946950   20.606652   23.214035 H          1 MOL1         0.3769
      29    C9      15.062384   18.249212   22.182571 C.3        1 MOL1         0.1053
      30    H14     16.046554   18.628135   22.490665 H          1 MOL1         0.0783
      31    O8      14.460207   17.529572   23.262507 O.3        1 MOL1        -0.5519
      32    H15     14.127383   18.222125   23.877274 H          1 MOL1         0.3769
      33    C10     15.266148   17.309668   20.965684 C.3        1 MOL1         0.1018
      34    H16     14.362810   16.702970   20.819259 H          1 MOL1         0.0783
      35    C11     15.575130   18.078563   19.650033 C.3        1 MOL1         0.1043
      36    H17     16.611544   18.424897   19.697135 H          1 MOL1         0.0783
      37    O9      14.704782   19.228760   19.495120 O.3        1 MOL1        -0.3740
      38    C12     15.449284   17.191459   18.388989 C.3        1 MOL1         0.0138
      39    H18     16.231756   16.421723   18.426387 H          1 MOL1         0.0794
      40    H19     15.640102   17.811943   17.503201 H          1 MOL1         0.0794
      41    O10     14.161803   16.569067   18.293434 O.3        1 MOL1        -0.5486
      42    H20     14.142216   16.049491   17.460485 H          1 MOL1         0.3769
      43    C13     18.563600   23.786493   21.825881 C.3        1 MOL1         0.2972
      44    H21     18.950407   24.750207   22.180556 H          1 MOL1         0.0751
      45    O11     19.588842   23.026326   21.149800 O.3        1 MOL1        -0.3740
      46    C14     17.996497   22.963772   23.014868 C.3        1 MOL1         0.1003
      47    H22     17.211284   23.574370   23.479546 H          1 MOL1         0.0783
      48    O12     19.001381   22.664251   23.997077 O.3        1 MOL1        -0.5519
      49    H23     19.692591   23.365602   23.928186 H          1 MOL1         0.3769
      50    C15     17.354216   21.646570   22.528999 C.3        1 MOL1         0.1053
      51    H24     18.152837   21.014843   22.131078 H          1 MOL1         0.0783
      52    O13     16.735900   21.002060   23.646073 O.3        1 MOL1        -0.5519
      53    H25     17.389391   21.102032   24.375111 H          1 MOL1         0.3769
      54    C16     16.336823   21.874502   21.386681 C.3        1 MOL1         0.1018
      55    H26     15.418710   22.304375   21.808199 H          1 MOL1         0.0783
      56    C17     16.905384   22.819508   20.290580 C.3        1 MOL1         0.1043
      57    H27     17.691785   22.281354   19.747991 H          1 MOL1         0.0783
      58    O14     17.481653   24.005888   20.894468 O.3        1 MOL1        -0.3740
      59    C18     15.848035   23.260530   19.250483 C.3        1 MOL1         0.0138
      60    H28     15.595613   22.395049   18.622927 H          1 MOL1         0.0794
      61    H29     16.296290   24.019421   18.595255 H          1 MOL1         0.0794
      62    O15     14.661343   23.773484   19.869016 O.3        1 MOL1        -0.5486
      63    H30     14.073185   24.105667   19.156027 H          1 MOL1         0.3769
      64    C19     23.729201   22.828086   21.001703 C.3        1 MOL1         0.2972
      65    H31     24.806406   22.974569   20.849477 H          1 MOL1         0.0751
      66    O16     23.413713   21.450376   21.293768 O.3        1 MOL1        -0.3740
      67    C20     23.194349   23.725429   22.145322 C.3        1 MOL1         0.1003
      68    H32     23.330606   24.766950   21.825632 H          1 MOL1         0.0783
      69    O17     23.916383   23.523764   23.369049 O.3        1 MOL1        -0.5519
      70    H33     23.851473   22.561866   23.597045 H          1 MOL1         0.3769
      71    C21     21.677765   23.491307   22.356106 C.3        1 MOL1         0.1053
      72    H34     21.536979   22.464075   22.719623 H          1 MOL1         0.0783
      73    O18     21.212730   24.425222   23.337188 O.3        1 MOL1        -0.5519
      74    H35     21.938898   24.475890   24.000558 H          1 MOL1         0.3769
      75    C22     20.887750   23.651605   21.023589 C.3        1 MOL1         0.1018
      76    H36     20.788772   24.721128   20.799544 H          1 MOL1         0.0783
      77    C23     21.583724   22.947234   19.822137 C.3        1 MOL1         0.1043
      78    H37     21.432911   21.866067   19.924697 H          1 MOL1         0.0783
      79    O19     23.007703   23.213410   19.814019 O.3        1 MOL1        -0.3740
      80    C24     21.001224   23.362152   18.447770 C.3        1 MOL1         0.0138
      81    H38     19.976194   22.977548   18.366515 H          1 MOL1         0.0794
      82    H39     21.593400   22.878339   17.659729 H          1 MOL1         0.0794
      83    O20     20.997183   24.782078   18.254902 O.3        1 MOL1        -0.5486
      84    H40     20.271506   25.155328   18.799228 H          1 MOL1         0.3769
      85    C25     24.897657   17.722222   22.148477 C.3        1 MOL1         0.2972
      86    H41     25.478855   16.828061   22.408857 H          1 MOL1         0.0751
      87    O21     23.594079   17.378606   21.639745 O.3        1 MOL1        -0.3740
      88    C26     24.717402   18.616596   23.397675 C.3        1 MOL1         0.1003
      89    H42     25.718442   18.914514   23.735817 H          1 MOL1         0.0783
      90    O22     24.047334   17.901967   24.451781 O.3        1 MOL1        -0.5519
      91    H43     24.006385   16.953053   24.178780 H          1 MOL1         0.3769
      92    C27     23.922680   19.892242   23.041740 C.3        1 MOL1         0.1053
      93    H44     22.904117   19.582232   22.801620 H          1 MOL1         0.0783
      94    O23     23.897890   20.759554   24.177315 O.3        1 MOL1        -0.5519
      95    H45     23.749428   20.160140   24.942656 H          1 MOL1         0.3769
      96    C28     24.485977   20.625965   21.798343 C.3        1 MOL1         0.1018
      97    H46     25.358912   21.217997   22.103852 H          1 MOL1         0.0783
      98    C29     24.867300   19.656308   20.641778 C.3        1 MOL1         0.1043
      99    H47     23.935836   19.320793   20.169066 H          1 MOL1         0.0783
     100    O24     25.581100   18.495905   21.140804 O.3        1 MOL1        -0.3740
     101    C30     25.720556   20.323777   19.537120 C.3        1 MOL1         0.0138
     102    H48     25.087153   21.035604   18.990427 H          1 MOL1         0.0794
     103    H49     26.035943   19.551764   18.822416 H          1 MOL1         0.0794
     104    O25     26.862324   21.003289   20.073792 O.3        1 MOL1        -0.5486
     105    H50     27.393309   21.336854   19.317800 H          1 MOL1         0.3769
     106    C31     21.314498   14.035971   20.700288 C.3        1 MOL1         0.2972
     107    H51     20.940619   13.069030   20.339981 H          1 MOL1         0.0751
     108    O26     20.231303   14.925643   21.048093 O.3        1 MOL1        -0.3740
     109    C32     22.246804   13.854840   21.931161 C.3        1 MOL1         0.1003
     110    H52     23.098742   13.243334   21.606582 H          1 MOL1         0.0783
     111    O27     21.579053   13.188996   23.013891 O.3        1 MOL1        -0.5519
     112    H53     20.808084   13.754287   23.273628 H          1 MOL1         0.3769
     113    C33     22.792328   15.224192   22.402704 C.3        1 MOL1         0.1053
     114    H54     21.939691   15.798596   22.776505 H          1 MOL1         0.0783
     115    O28     23.742810   15.036938   23.457028 O.3        1 MOL1        -0.5519
     116    H55     23.357707   14.332917   24.026048 H          1 MOL1         0.3769
     117    C34     23.431953   16.009705   21.228482 C.3        1 MOL1         0.1018
     118    H56     24.392016   15.543234   20.971817 H          1 MOL1         0.0783
     119    C35     22.526618   16.031270   19.969351 C.3        1 MOL1         0.1043
     120    H57     21.650865   16.651353   20.191282 H          1 MOL1         0.0783
     121    O29     22.090877   14.683269   19.666122 O.3        1 MOL1        -0.3740
     122    C36     23.199036   16.648163   18.715519 C.3        1 MOL1         0.0138
     123    H58     23.072805   17.737570   18.756208 H          1 MOL1         0.0794
     124    H59     22.664009   16.297871   17.822781 H          1 MOL1         0.0794
     125    O30     24.593452   16.335794   18.610191 O.3        1 MOL1        -0.5486
     126    H60     25.060135   16.840465   19.313346 H          1 MOL1         0.3769
     127    N1      20.803923   17.846889   25.046235 N.4        1 MOL1        -0.5940
     128    H1      21.132906   16.919824   25.336421 H          1 MOL1         0.3649
     129    H2      21.437031   18.530454   25.474050 H          1 MOL1         0.3649
     130    H3      19.872802   17.982233   25.451541 H          1 MOL1         0.3649
     131    C1      20.791744   17.976050   23.539562 C.3        1 MOL1         0.0207
     132    H4      20.203964   17.149451   23.137411 H          1 MOL1         0.0950
     133    H5      21.821158   17.860533   23.192019 H          1 MOL1         0.0950
     134    C2      20.226368   19.312329   23.032927 C.3        1 MOL1        -0.1415
     135    H6      19.177821   19.403795   23.342985 H          1 MOL1         0.0976
     136    H7      20.765110   20.141970   23.510388 H          1 MOL1         0.0976
     137    C3      20.344440   19.449191   21.495300 C.3        1 MOL1        -0.1375
     138    H8      21.381791   19.274183   21.180903 H          1 MOL1         0.0976
     139    H9      20.113043   20.483206   21.222194 H          1 MOL1         0.0976
     140    C4      19.400436   18.488622   20.735133 C.3        1 MOL1        -0.1375
     141    H10     19.630046   17.459461   21.025596 H          1 MOL1         0.0976
     142    H11     18.363123   18.673106   21.043525 H          1 MOL1         0.0976
     143    C5      19.523084   18.583225   19.195721 C.3        1 MOL1        -0.1350
     144    H12     18.961845   17.753580   18.744060 H          1 MOL1         0.0976
     145    H13     20.570719   18.442581   18.898495 H          1 MOL1         0.0976
     146    C6      18.997797   19.913948   18.615096 C.3        1 MOL1        -0.2365
     147    H14     19.557053   20.768528   19.007450 H          1 MOL1         0.0987
     148    H15     17.938407   20.061888   18.855039 H          1 MOL1         0.0987
     149    H16     19.096665   19.923092   17.522069 H          1 MOL1         0.0987
@<TRIPOS>BOND
    1     1     2    1
    2     1     3    1
    3     1     4    1
    4     4     5    1
    5     4     6    1
    6     6     7    1
    7     4     8    1
    8     8     9    1
    9     8    10    1
   10    10    11    1
   11     8    12    1
   12    12    13    1
   13    12    14    1
   14    14    15    1
   15     1    16    1
   16    14    16    1
   17    14    17    1
   18    17    18    1
   19    17    19    1
   20    17    20    1
   21    20    21    1
   22    22    23    1
   23    22    24    1
   24    22    25    1
   25    25    26    1
   26    25    27    1
   27    27    28    1
   28    25    29    1
   29    29    30    1
   30    29    31    1
   31    31    32    1
   32     3    33    1
   33    29    33    1
   34    33    34    1
   35    33    35    1
   36    35    36    1
   37    22    37    1
   38    35    37    1
   39    35    38    1
   40    38    39    1
   41    38    40    1
   42    38    41    1
   43    41    42    1
   44    43    44    1
   45    43    45    1
   46    43    46    1
   47    46    47    1
   48    46    48    1
   49    48    49    1
   50    46    50    1
   51    50    51    1
   52    50    52    1
   53    52    53    1
   54    24    54    1
   55    50    54    1
   56    54    55    1
   57    54    56    1
   58    56    57    1
   59    43    58    1
   60    56    58    1
   61    56    59    1
   62    59    60    1
   63    59    61    1
   64    59    62    1
   65    62    63    1
   66    64    65    1
   67    64    66    1
   68    64    67    1
   69    67    68    1
   70    67    69    1
   71    69    70    1
   72    67    71    1
   73    71    72    1
   74    71    73    1
   75    73    74    1
   76    45    75    1
   77    71    75    1
   78    75    76    1
   79    75    77    1
   80    77    78    1
   81    64    79    1
   82    77    79    1
   83    77    80    1
   84    80    81    1
   85    80    82    1
   86    80    83    1
   87    83    84    1
   88    85    86    1
   89    85    87    1
   90    85    88    1
   91    88    89    1
   92    88    90    1
   93    90    91    1
   94    88    92    1
   95    92    93    1
   96    92    94    1
   97    94    95    1
   98    66    96    1
   99    92    96    1
  100    96    97    1
  101    96    98    1
  102    98    99    1
  103    85   100    1
  104    98   100    1
  105    98   101    1
  106   101   102    1
  107   101   103    1
  108   101   104    1
  109   104   105    1
  110   106   107    1
  111    12   108    1
  112   106   108    1
  113   106   109    1
  114   109   110    1
  115   109   111    1
  116   111   112    1
  117   109   113    1
  118   113   114    1
  119   113   115    1
  120   115   116    1
  121    87   117    1
  122   113   117    1
  123   117   118    1
  124   117   119    1
  125   119   120    1
  126   106   121    1
  127   119   121    1
  128   119   122    1
  129   122   123    1
  130   122   124    1
  131   122   125    1
  132   125   126    1
  133   127   128    1
  134   127   129    1
  135   127   130    1
  136   127   131    1
  137   131   132    1
  138   131   133    1
  139   131   134    1
  140   134   135    1
  141   134   136    1
  142   134   137    1
  143   137   138    1
  144   137   139    1
  145   137   140    1
  146   140   141    1
  147   140   142    1
  148   140   143    1
  149   143   144    1
  150   143   145    1
  151   143   146    1
  152   146   147    1
  153   146   148    1
  154   146   149    1
@<TRIPOS>SUBSTRUCTURE
       1 MOL1            1 RESIDUE      1      MOL     
       2 MOL1          149 RESIDUE      1      MOL     
@<SCITEGIC>MOL_PROPERTY
feprocess Rank
SciTegic.value.IntegerValue
7

@<SCITEGIC>MOL_PROPERTY
Conf_Id
SciTegic.value.IntegerValue
387

@<SCITEGIC>MOL_PROPERTY
Probability
SciTegic.value.DoubleValue
3.22

@<SCITEGIC>MOL_PROPERTY
G
SciTegic.value.DoubleValue
569.188

@<SCITEGIC>MOL_PROPERTY
E
SciTegic.value.DoubleValue
369.947

@<SCITEGIC>MOL_PROPERTY
-TS
SciTegic.value.DoubleValue
199.240

@<SCITEGIC>MOL_PROPERTY
U+W
SciTegic.value.DoubleValue
238.493

@<SCITEGIC>MOL_PROPERTY
U
SciTegic.value.DoubleValue
326.385

@<SCITEGIC>MOL_PROPERTY
W
SciTegic.value.DoubleValue
-87.892

@<SCITEGIC>MOL_PROPERTY
W(PB)
SciTegic.value.DoubleValue
-93.958

@<SCITEGIC>MOL_PROPERTY
W(SA)
SciTegic.value.DoubleValue
6.066

@<SCITEGIC>MOL_PROPERTY
Valence
SciTegic.value.DoubleValue
147.186

@<SCITEGIC>MOL_PROPERTY
Coulomb
SciTegic.value.DoubleValue
205.532

@<SCITEGIC>MOL_PROPERTY
VdW
SciTegic.value.DoubleValue
-26.333

@<SCITEGIC>MOL_PROPERTY
VdW6
SciTegic.value.DoubleValue
-184.088

@<SCITEGIC>MOL_PROPERTY
VdW12
SciTegic.value.DoubleValue
157.755

@<SCITEGIC>MOL_PROPERTY
Bond
SciTegic.value.DoubleValue
4.939

@<SCITEGIC>MOL_PROPERTY
Angle
SciTegic.value.DoubleValue
12.513

@<SCITEGIC>MOL_PROPERTY
Pdih
SciTegic.value.DoubleValue
129.733

@<SCITEGIC>MOL_PROPERTY
Idih
SciTegic.value.DoubleValue
0.000

@<SCITEGIC>MOL_PROPERTY
Tether
SciTegic.value.DoubleValue
0.000

@<TRIPOS>MOLECULE
CD_guest-2_fast_vm2_rndm.mol2 : feprocess host+ligand conformer 8
         149         154           2
SMALL
USER_CHARGES
 
@<TRIPOS>ATOM
       1    C1      16.420821   15.429780   21.770843 C.3        1 MOL1         0.2972
       2    H1      15.373242   15.322184   22.079135 H          1 MOL1         0.0751
       3    O1      16.647646   16.684698   21.095790 O.3        1 MOL1        -0.3740
       4    C2      17.354654   15.339584   23.005486 C.3        1 MOL1         0.1003
       5    H2      17.177529   14.362085   23.472874 H          1 MOL1         0.0783
       6    O2      17.081624   16.378296   23.960552 O.3        1 MOL1        -0.5519
       7    H3      16.152934   16.676693   23.807038 H          1 MOL1         0.3769
       8    C3      18.837462   15.412465   22.583272 C.3        1 MOL1         0.1053
       9    H4      19.020549   16.420956   22.196714 H          1 MOL1         0.0783
      10    O3      19.651005   15.178670   23.736625 O.3        1 MOL1        -0.5519
      11    H5      19.194820   15.665755   24.459503 H          1 MOL1         0.3769
      12    C4      19.176978   14.404231   21.457669 C.3        1 MOL1         0.1018
      13    H6      19.244215   13.398020   21.891624 H          1 MOL1         0.0783
      14    C5      18.119604   14.415210   20.317678 C.3        1 MOL1         0.1043
      15    H7      18.235607   15.348052   19.752777 H          1 MOL1         0.0783
      16    O4      16.779504   14.362130   20.868202 O.3        1 MOL1        -0.3740
      17    C6      18.284471   13.249647   19.313168 C.3        1 MOL1         0.0138
      18    H8      19.187854   13.430939   18.715206 H          1 MOL1         0.0794
      19    H9      17.429721   13.258016   18.623587 H          1 MOL1         0.0794
      20    O5      18.383745   11.979144   19.968767 O.3        1 MOL1        -0.5486
      21    H10     18.402711   11.285539   19.273617 H          1 MOL1         0.3769
      22    C7      14.720699   20.332844   20.610666 C.3        1 MOL1         0.2972
      23    H11     14.048450   21.163013   20.357903 H          1 MOL1         0.0751
      24    O6      16.030198   20.803598   20.990181 O.3        1 MOL1        -0.3740
      25    C8      14.140477   19.462864   21.755509 C.3        1 MOL1         0.1003
      26    H12     13.210186   19.017375   21.379264 H          1 MOL1         0.0783
      27    O7      13.835900   20.241168   22.922107 O.3        1 MOL1        -0.5519
      28    H13     14.674103   20.683080   23.210690 H          1 MOL1         0.3769
      29    C9      15.110915   18.306172   22.102781 C.3        1 MOL1         0.1053
      30    H14     16.033218   18.741627   22.511669 H          1 MOL1         0.0783
      31    O8      14.491143   17.471155   23.087295 O.3        1 MOL1        -0.5519
      32    H15     14.028285   18.095151   23.692252 H          1 MOL1         0.3769
      33    C10     15.477059   17.487008   20.830862 C.3        1 MOL1         0.1018
      34    H16     14.620682   16.859417   20.553342 H          1 MOL1         0.0783
      35    C11     15.849320   18.396249   19.626461 C.3        1 MOL1         0.1043
      36    H17     16.831286   18.838614   19.830208 H          1 MOL1         0.0783
      37    O9      14.879806   19.461595   19.471677 O.3        1 MOL1        -0.3740
      38    C12     15.963642   17.632471   18.283510 C.3        1 MOL1         0.0138
      39    H18     16.866704   17.008868   18.307791 H          1 MOL1         0.0794
      40    H19     16.098419   18.365799   17.477421 H          1 MOL1         0.0794
      41    O10     14.820832   16.811605   18.013983 O.3        1 MOL1        -0.5486
      42    H20     14.871383   16.029342   18.604057 H          1 MOL1         0.3769
      43    C13     18.390493   23.994861   21.929181 C.3        1 MOL1         0.2972
      44    H21     18.865352   24.948229   22.194992 H          1 MOL1         0.0751
      45    O11     19.356676   23.022184   21.482089 O.3        1 MOL1        -0.3740
      46    C14     17.637074   23.416517   23.149944 C.3        1 MOL1         0.1003
      47    H22     16.849882   24.132252   23.420707 H          1 MOL1         0.0783
      48    O12     18.522103   23.233519   24.267852 O.3        1 MOL1        -0.5519
      49    H23     19.407376   23.582860   24.000086 H          1 MOL1         0.3769
      50    C15     16.968395   22.073530   22.784729 C.3        1 MOL1         0.1053
      51    H24     17.767812   21.348569   22.614100 H          1 MOL1         0.0783
      52    O13     16.163330   21.636794   23.882144 O.3        1 MOL1        -0.5519
      53    H25     16.723973   21.788542   24.676417 H          1 MOL1         0.3769
      54    C16     16.127313   22.154584   21.484783 C.3        1 MOL1         0.1018
      55    H26     15.145034   22.582003   21.726191 H          1 MOL1         0.0783
      56    C17     16.813803   22.976928   20.354309 C.3        1 MOL1         0.1043
      57    H27     17.598284   22.347810   19.915801 H          1 MOL1         0.0783
      58    O14     17.425280   24.184989   20.874741 O.3        1 MOL1        -0.3740
      59    C18     15.852879   23.364077   19.205209 C.3        1 MOL1         0.0138
      60    H28     15.591796   22.454051   18.648096 H          1 MOL1         0.0794
      61    H29     16.384976   24.029623   18.512263 H          1 MOL1         0.0794
      62    O15     14.661064   23.996468   19.687737 O.3        1 MOL1        -0.5486
      63    H30     14.137446   24.281311   18.907033 H          1 MOL1         0.3769
      64    C19     23.457568   22.621341   20.911267 C.3        1 MOL1         0.2972
      65    H31     24.510195   22.773648   20.640451 H          1 MOL1         0.0751
      66    O16     23.194445   21.241438   21.242598 O.3        1 MOL1        -0.3740
      67    C20     23.054429   23.527109   22.108369 C.3        1 MOL1         0.1003
      68    H32     23.216954   24.566155   21.793494 H          1 MOL1         0.0783
      69    O17     23.854710   23.263264   23.270652 O.3        1 MOL1        -0.5519
      70    H33     23.711589   22.313840   23.512862 H          1 MOL1         0.3769
      71    C21     21.552578   23.363729   22.447713 C.3        1 MOL1         0.1053
      72    H34     21.404826   22.351416   22.839995 H          1 MOL1         0.0783
      73    O18     21.182573   24.321806   23.444769 O.3        1 MOL1        -0.5519
      74    H35     21.928573   24.323682   24.086534 H          1 MOL1         0.3769
      75    C22     20.668737   23.531391   21.184621 C.3        1 MOL1         0.1018
      76    H36     20.640001   24.593536   20.909100 H          1 MOL1         0.0783
      77    C23     21.197051   22.710005   19.979367 C.3        1 MOL1         0.1043
      78    H37     21.051952   21.644582   20.198593 H          1 MOL1         0.0783
      79    O19     22.609057   22.972448   19.796467 O.3        1 MOL1        -0.3740
      80    C24     20.456216   23.004346   18.649889 C.3        1 MOL1         0.0138
      81    H38     19.503580   22.460282   18.654051 H          1 MOL1         0.0794
      82    H39     21.053214   22.601317   17.821047 H          1 MOL1         0.0794
      83    O20     20.205383   24.399478   18.442921 O.3        1 MOL1        -0.5486
      84    H40     19.483813   24.661977   19.055405 H          1 MOL1         0.3769
      85    C25     25.003682   17.613688   22.017317 C.3        1 MOL1         0.2972
      86    H41     25.665805   16.775396   22.269548 H          1 MOL1         0.0751
      87    O21     23.756657   17.162088   21.449941 O.3        1 MOL1        -0.3740
      88    C26     24.712891   18.469277   23.276225 C.3        1 MOL1         0.1003
      89    H42     25.670515   18.889458   23.610740 H          1 MOL1         0.0783
      90    O22     24.140875   17.696673   24.343470 O.3        1 MOL1        -0.5519
      91    H43     24.046923   16.767891   24.016732 H          1 MOL1         0.3769
      92    C27     23.771812   19.637842   22.919970 C.3        1 MOL1         0.1053
      93    H44     22.815517   19.202766   22.610343 H          1 MOL1         0.0783
      94    O23     23.587215   20.460877   24.079016 O.3        1 MOL1        -0.5519
      95    H45     23.984873   19.948420   24.819371 H          1 MOL1         0.3769
      96    C28     24.311738   20.470781   21.732312 C.3        1 MOL1         0.1018
      97    H46     25.127162   21.110350   22.095574 H          1 MOL1         0.0783
      98    C29     24.813115   19.578628   20.557416 C.3        1 MOL1         0.1043
      99    H47     23.932760   19.162942   20.050139 H          1 MOL1         0.0783
     100    O24     25.630996   18.484688   21.052297 O.3        1 MOL1        -0.3740
     101    C30     25.626370   20.353308   19.493028 C.3        1 MOL1         0.0138
     102    H48     24.938786   20.999203   18.930404 H          1 MOL1         0.0794
     103    H49     26.049632   19.631051   18.782093 H          1 MOL1         0.0794
     104    O25     26.667638   21.144879   20.078451 O.3        1 MOL1        -0.5486
     105    H50     27.193469   21.534715   19.346149 H          1 MOL1         0.3769
     106    C31     21.457118   13.832396   20.709895 C.3        1 MOL1         0.2972
     107    H51     21.026086   12.860995   20.435651 H          1 MOL1         0.0751
     108    O26     20.428651   14.834331   20.881008 O.3        1 MOL1        -0.3740
     109    C32     22.325339   13.719130   21.992828 C.3        1 MOL1         0.1003
     110    H52     23.162722   13.051124   21.752098 H          1 MOL1         0.0783
     111    O27     21.599936   13.162500   23.098545 O.3        1 MOL1        -0.5519
     112    H53     20.902966   13.822310   23.342173 H          1 MOL1         0.3769
     113    C33     22.915172   15.098233   22.371702 C.3        1 MOL1         0.1053
     114    H54     22.084940   15.755039   22.663806 H          1 MOL1         0.0783
     115    O28     23.816278   14.936878   23.471365 O.3        1 MOL1        -0.5519
     116    H55     23.371399   14.299552   24.074963 H          1 MOL1         0.3769
     117    C34     23.649893   15.752697   21.172415 C.3        1 MOL1         0.1018
     118    H56     24.634291   15.282034   21.055667 H          1 MOL1         0.0783
     119    C35     22.866958   15.631369   19.834920 C.3        1 MOL1         0.1043
     120    H57     22.029167   16.334020   19.870695 H          1 MOL1         0.0783
     121    O29     22.341810   14.291216   19.665363 O.3        1 MOL1        -0.3740
     122    C36     23.703605   16.007122   18.587174 C.3        1 MOL1         0.0138
     123    H58     23.862514   17.093848   18.586471 H          1 MOL1         0.0794
     124    H59     23.116983   15.765308   17.690969 H          1 MOL1         0.0794
     125    O30     24.967587   15.334010   18.541904 O.3        1 MOL1        -0.5486
     126    H60     25.569577   15.791220   19.167524 H          1 MOL1         0.3769
     127    N1      21.247392   18.680679   25.043200 N.4        1 MOL1        -0.5940
     128    H1      20.703930   19.215723   25.727110 H          1 MOL1         0.3649
     129    H2      22.076094   19.240197   24.796263 H          1 MOL1         0.3649
     130    H3      21.596151   17.835698   25.509207 H          1 MOL1         0.3649
     131    C1      20.442561   18.345918   23.807592 C.3        1 MOL1         0.0207
     132    H4      19.561033   17.773710   24.109910 H          1 MOL1         0.0950
     133    H5      21.068693   17.709154   23.178232 H          1 MOL1         0.0950
     134    C2      20.011241   19.598721   23.024783 C.3        1 MOL1        -0.1415
     135    H6      19.299183   20.165647   23.637185 H          1 MOL1         0.0976
     136    H7      20.874810   20.253485   22.871197 H          1 MOL1         0.0976
     137    C3      19.383810   19.272829   21.650068 C.3        1 MOL1        -0.1375
     138    H8      19.042091   20.209121   21.192630 H          1 MOL1         0.0976
     139    H9      18.489304   18.652297   21.794522 H          1 MOL1         0.0976
     140    C4      20.375187   18.568657   20.689817 C.3        1 MOL1        -0.1375
     141    H10     21.257048   19.203552   20.528119 H          1 MOL1         0.0976
     142    H11     20.742617   17.647967   21.158038 H          1 MOL1         0.0976
     143    C5      19.743184   18.195207   19.329093 C.3        1 MOL1        -0.1350
     144    H12     18.849191   17.583435   19.500329 H          1 MOL1         0.0976
     145    H13     20.443311   17.560495   18.769878 H          1 MOL1         0.0976
     146    C6      19.388699   19.420639   18.457679 C.3        1 MOL1        -0.2365
     147    H14     18.640826   20.062258   18.938886 H          1 MOL1         0.0987
     148    H15     18.977465   19.098899   17.492235 H          1 MOL1         0.0987
     149    H16     20.282618   20.023266   18.254228 H          1 MOL1         0.0987
@<TRIPOS>BOND
    1     1     2    1
    2     1     3    1
    3     1     4    1
    4     4     5    1
    5     4     6    1
    6     6     7    1
    7     4     8    1
    8     8     9    1
    9     8    10    1
   10    10    11    1
   11     8    12    1
   12    12    13    1
   13    12    14    1
   14    14    15    1
   15     1    16    1
   16    14    16    1
   17    14    17    1
   18    17    18    1
   19    17    19    1
   20    17    20    1
   21    20    21    1
   22    22    23    1
   23    22    24    1
   24    22    25    1
   25    25    26    1
   26    25    27    1
   27    27    28    1
   28    25    29    1
   29    29    30    1
   30    29    31    1
   31    31    32    1
   32     3    33    1
   33    29    33    1
   34    33    34    1
   35    33    35    1
   36    35    36    1
   37    22    37    1
   38    35    37    1
   39    35    38    1
   40    38    39    1
   41    38    40    1
   42    38    41    1
   43    41    42    1
   44    43    44    1
   45    43    45    1
   46    43    46    1
   47    46    47    1
   48    46    48    1
   49    48    49    1
   50    46    50    1
   51    50    51    1
   52    50    52    1
   53    52    53    1
   54    24    54    1
   55    50    54    1
   56    54    55    1
   57    54    56    1
   58    56    57    1
   59    43    58    1
   60    56    58    1
   61    56    59    1
   62    59    60    1
   63    59    61    1
   64    59    62    1
   65    62    63    1
   66    64    65    1
   67    64    66    1
   68    64    67    1
   69    67    68    1
   70    67    69    1
   71    69    70    1
   72    67    71    1
   73    71    72    1
   74    71    73    1
   75    73    74    1
   76    45    75    1
   77    71    75    1
   78    75    76    1
   79    75    77    1
   80    77    78    1
   81    64    79    1
   82    77    79    1
   83    77    80    1
   84    80    81    1
   85    80    82    1
   86    80    83    1
   87    83    84    1
   88    85    86    1
   89    85    87    1
   90    85    88    1
   91    88    89    1
   92    88    90    1
   93    90    91    1
   94    88    92    1
   95    92    93    1
   96    92    94    1
   97    94    95    1
   98    66    96    1
   99    92    96    1
  100    96    97    1
  101    96    98    1
  102    98    99    1
  103    85   100    1
  104    98   100    1
  105    98   101    1
  106   101   102    1
  107   101   103    1
  108   101   104    1
  109   104   105    1
  110   106   107    1
  111    12   108    1
  112   106   108    1
  113   106   109    1
  114   109   110    1
  115   109   111    1
  116   111   112    1
  117   109   113    1
  118   113   114    1
  119   113   115    1
  120   115   116    1
  121    87   117    1
  122   113   117    1
  123   117   118    1
  124   117   119    1
  125   119   120    1
  126   106   121    1
  127   119   121    1
  128   119   122    1
  129   122   123    1
  130   122   124    1
  131   122   125    1
  132   125   126    1
  133   127   128    1
  134   127   129    1
  135   127   130    1
  136   127   131    1
  137   131   132    1
  138   131   133    1
  139   131   134    1
  140   134   135    1
  141   134   136    1
  142   134   137    1
  143   137   138    1
  144   137   139    1
  145   137   140    1
  146   140   141    1
  147   140   142    1
  148   140   143    1
  149   143   144    1
  150   143   145    1
  151   143   146    1
  152   146   147    1
  153   146   148    1
  154   146   149    1
@<TRIPOS>SUBSTRUCTURE
       1 MOL1            1 RESIDUE      1      MOL     
       2 MOL1          149 RESIDUE      1      MOL     
@<SCITEGIC>MOL_PROPERTY
feprocess Rank
SciTegic.value.IntegerValue
8

@<SCITEGIC>MOL_PROPERTY
Conf_Id
SciTegic.value.IntegerValue
514

@<SCITEGIC>MOL_PROPERTY
Probability
SciTegic.value.DoubleValue
2.83

@<SCITEGIC>MOL_PROPERTY
G
SciTegic.value.DoubleValue
569.265

@<SCITEGIC>MOL_PROPERTY
E
SciTegic.value.DoubleValue
370.455

@<SCITEGIC>MOL_PROPERTY
-TS
SciTegic.value.DoubleValue
198.810

@<SCITEGIC>MOL_PROPERTY
U+W
SciTegic.value.DoubleValue
239.001

@<SCITEGIC>MOL_PROPERTY
U
SciTegic.value.DoubleValue
324.147

@<SCITEGIC>MOL_PROPERTY
W
SciTegic.value.DoubleValue
-85.145

@<SCITEGIC>MOL_PROPERTY
W(PB)
SciTegic.value.DoubleValue
-91.174

@<SCITEGIC>MOL_PROPERTY
W(SA)
SciTegic.value.DoubleValue
6.029

@<SCITEGIC>MOL_PROPERTY
Valence
SciTegic.value.DoubleValue
147.668

@<SCITEGIC>MOL_PROPERTY
Coulomb
SciTegic.value.DoubleValue
202.809

@<SCITEGIC>MOL_PROPERTY
VdW
SciTegic.value.DoubleValue
-26.330

@<SCITEGIC>MOL_PROPERTY
VdW6
SciTegic.value.DoubleValue
-184.012

@<SCITEGIC>MOL_PROPERTY
VdW12
SciTegic.value.DoubleValue
157.682

@<SCITEGIC>MOL_PROPERTY
Bond
SciTegic.value.DoubleValue
4.737

@<SCITEGIC>MOL_PROPERTY
Angle
SciTegic.value.DoubleValue
12.422

@<SCITEGIC>MOL_PROPERTY
Pdih
SciTegic.value.DoubleValue
130.509

@<SCITEGIC>MOL_PROPERTY
Idih
SciTegic.value.DoubleValue
0.000

@<SCITEGIC>MOL_PROPERTY
Tether
SciTegic.value.DoubleValue
0.000

