@<TRIPOS>MOLECULE
CD_guest-2_fast_vm2_rndm.mol2 : feprocess host+ligand conformer 1
         149         154           2
SMALL
USER_CHARGES
 
@<TRIPOS>ATOM
       1    C1      16.204832   15.365182   21.677926 C.3        1 MOL1         0.2972
       2    H1      15.122580   15.267449   21.832236 H          1 MOL1         0.0751
       3    O1      16.542777   16.610823   21.033851 O.3        1 MOL1        -0.3740
       4    C2      16.954517   15.275525   23.031595 C.3        1 MOL1         0.1003
       5    H2      16.753711   14.278884   23.446117 H          1 MOL1         0.0783
       6    O2      16.496813   16.272120   23.962153 O.3        1 MOL1        -0.5519
       7    H3      15.646722   16.625028   23.598964 H          1 MOL1         0.3769
       8    C3      18.478441   15.407810   22.811068 C.3        1 MOL1         0.1053
       9    H4      18.678862   16.423214   22.451347 H          1 MOL1         0.0783
      10    O3      19.146214   15.196552   24.057302 O.3        1 MOL1        -0.5519
      11    H5      18.566962   15.632682   24.719042 H          1 MOL1         0.3769
      12    C4      18.992543   14.408092   21.744483 C.3        1 MOL1         0.1018
      13    H6      19.045647   13.411603   22.203133 H          1 MOL1         0.0783
      14    C5      18.091039   14.361535   20.476513 C.3        1 MOL1         0.1043
      15    H7      18.263423   15.282812   19.904854 H          1 MOL1         0.0783
      16    O4      16.690139   14.291209   20.846112 O.3        1 MOL1        -0.3740
      17    C6      18.408771   13.174934   19.535104 C.3        1 MOL1         0.0138
      18    H8      19.377931   13.362282   19.053148 H          1 MOL1         0.0794
      19    H9      17.650509   13.145204   18.741176 H          1 MOL1         0.0794
      20    O5      18.447773   11.924403   20.234248 O.3        1 MOL1        -0.5486
      21    H10     18.571567   11.214020   19.567341 H          1 MOL1         0.3769
      22    C7      14.868989   20.287698   20.156785 C.3        1 MOL1         0.2972
      23    H11     14.274874   21.139004   19.800462 H          1 MOL1         0.0751
      24    O6      16.171478   20.710186   20.615837 O.3        1 MOL1        -0.3740
      25    C8      14.125113   19.510575   21.277054 C.3        1 MOL1         0.1003
      26    H12     13.212135   19.100731   20.825476 H          1 MOL1         0.0783
      27    O7      13.750620   20.354291   22.375553 O.3        1 MOL1        -0.5519
      28    H13     14.591289   20.645149   22.810491 H          1 MOL1         0.3769
      29    C9      14.980120   18.320216   21.774291 C.3        1 MOL1         0.1053
      30    H14     15.876168   18.722880   22.266170 H          1 MOL1         0.0783
      31    O8      14.209176   17.560429   22.711977 O.3        1 MOL1        -0.5519
      32    H15     13.723385   18.231448   23.243729 H          1 MOL1         0.3769
      33    C10     15.439338   17.424384   20.590913 C.3        1 MOL1         0.1018
      34    H16     14.594043   16.808699   20.258285 H          1 MOL1         0.0783
      35    C11     15.974507   18.247293   19.385688 C.3        1 MOL1         0.1043
      36    H17     16.954525   18.653212   19.662506 H          1 MOL1         0.0783
      37    O9      15.078888   19.346297   19.082712 O.3        1 MOL1        -0.3740
      38    C12     16.189138   17.405762   18.103395 C.3        1 MOL1         0.0138
      39    H18     17.066348   16.761672   18.250916 H          1 MOL1         0.0794
      40    H19     16.424474   18.088037   17.275822 H          1 MOL1         0.0794
      41    O10     15.050945   16.602327   17.768650 O.3        1 MOL1        -0.5486
      42    H20     15.029331   15.845317   18.392699 H          1 MOL1         0.3769
      43    C13     18.417504   23.825265   22.111656 C.3        1 MOL1         0.2972
      44    H21     18.802159   24.759564   22.540318 H          1 MOL1         0.0751
      45    O11     19.478798   23.011012   21.573318 O.3        1 MOL1        -0.3740
      46    C14     17.650933   23.016317   23.188408 C.3        1 MOL1         0.1003
      47    H22     16.815171   23.642697   23.526825 H          1 MOL1         0.0783
      48    O12     18.484978   22.694706   24.313339 O.3        1 MOL1        -0.5519
      49    H23     19.274318   23.286917   24.269839 H          1 MOL1         0.3769
      50    C15     17.068716   21.717279   22.591123 C.3        1 MOL1         0.1053
      51    H24     17.907791   21.059928   22.334200 H          1 MOL1         0.0783
      52    O13     16.251800   21.089271   23.583688 O.3        1 MOL1        -0.5519
      53    H25     16.755515   21.208912   24.419628 H          1 MOL1         0.3769
      54    C16     16.259986   21.978551   21.295755 C.3        1 MOL1         0.1018
      55    H26     15.273267   22.376658   21.566047 H          1 MOL1         0.0783
      56    C17     16.978899   22.959208   20.324861 C.3        1 MOL1         0.1043
      57    H27     17.819299   22.424665   19.864501 H          1 MOL1         0.0783
      58    O14     17.491432   24.110605   21.042764 O.3        1 MOL1        -0.3740
      59    C18     16.074353   23.459870   19.173488 C.3        1 MOL1         0.0138
      60    H28     15.895345   22.624348   18.483318 H          1 MOL1         0.0794
      61    H29     16.615913   24.234543   18.614198 H          1 MOL1         0.0794
      62    O15     14.823640   23.971726   19.650286 O.3        1 MOL1        -0.5486
      63    H30     14.340007   24.342592   18.880028 H          1 MOL1         0.3769
      64    C19     23.630334   22.846778   21.610601 C.3        1 MOL1         0.2972
      65    H31     24.703680   23.066264   21.545732 H          1 MOL1         0.0751
      66    O16     23.384625   21.442170   21.814795 O.3        1 MOL1        -0.3740
      67    C20     23.015187   23.603709   22.810928 C.3        1 MOL1         0.1003
      68    H32     23.176796   24.676686   22.643870 H          1 MOL1         0.0783
      69    O17     23.662087   23.208243   24.031256 O.3        1 MOL1        -0.5519
      70    H33     23.932769   22.264020   23.918032 H          1 MOL1         0.3769
      71    C21     21.490557   23.356702   22.906189 C.3        1 MOL1         0.1053
      72    H34     21.334772   22.306475   23.185308 H          1 MOL1         0.0783
      73    O18     20.953042   24.211085   23.921216 O.3        1 MOL1        -0.5519
      74    H35     21.606573   24.169627   24.656326 H          1 MOL1         0.3769
      75    C22     20.789243   23.610407   21.542878 C.3        1 MOL1         0.1018
      76    H36     20.732819   24.691743   21.363528 H          1 MOL1         0.0783
      77    C23     21.537018   22.938299   20.359501 C.3        1 MOL1         0.1043
      78    H37     21.415693   21.852726   20.457974 H          1 MOL1         0.0783
      79    O19     22.948422   23.262319   20.409028 O.3        1 MOL1        -0.3740
      80    C24     20.981169   23.330403   18.967438 C.3        1 MOL1         0.0138
      81    H38     20.025985   22.811335   18.813240 H          1 MOL1         0.0794
      82    H39     21.674721   22.966506   18.197980 H          1 MOL1         0.0794
      83    O20     20.788594   24.742372   18.824323 O.3        1 MOL1        -0.5486
      84    H40     19.999887   24.987555   19.354566 H          1 MOL1         0.3769
      85    C25     25.082598   17.702840   21.120034 C.3        1 MOL1         0.2972
      86    H41     25.754548   16.878524   20.848675 H          1 MOL1         0.0751
      87    O21     23.759959   17.233475   21.455154 O.3        1 MOL1        -0.3740
      88    C26     25.628075   18.467616   22.352792 C.3        1 MOL1         0.1003
      89    H42     26.615978   18.864696   22.085462 H          1 MOL1         0.0783
      90    O22     25.760633   17.591546   23.483907 O.3        1 MOL1        -0.5519
      91    H43     24.961807   17.005471   23.501068 H          1 MOL1         0.3769
      92    C27     24.708587   19.664035   22.699569 C.3        1 MOL1         0.1053
      93    H44     23.743102   19.266319   23.040432 H          1 MOL1         0.0783
      94    O23     25.302364   20.444541   23.742560 O.3        1 MOL1        -0.5519
      95    H45     25.611521   19.789714   24.407504 H          1 MOL1         0.3769
      96    C28     24.457855   20.552683   21.456317 C.3        1 MOL1         0.1018
      97    H46     25.386330   21.093674   21.231054 H          1 MOL1         0.0783
      98    C29     24.029829   19.717936   20.214733 C.3        1 MOL1         0.1043
      99    H47     23.039871   19.289345   20.405175 H          1 MOL1         0.0783
     100    O24     24.975402   18.639765   20.025915 O.3        1 MOL1        -0.3740
     101    C30     23.924192   20.511540   18.887293 C.3        1 MOL1         0.0138
     102    H48     22.913970   20.931332   18.811016 H          1 MOL1         0.0794
     103    H49     24.039036   19.808822   18.051212 H          1 MOL1         0.0794
     104    O25     24.887302   21.564736   18.777688 O.3        1 MOL1        -0.5486
     105    H50     24.492845   22.353463   19.215481 H          1 MOL1         0.3769
     106    C31     21.327808   13.880714   21.227217 C.3        1 MOL1         0.2972
     107    H51     20.909686   12.873814   21.100202 H          1 MOL1         0.0751
     108    O26     20.288804   14.878100   21.320266 O.3        1 MOL1        -0.3740
     109    C32     22.222461   13.957930   22.492763 C.3        1 MOL1         0.1003
     110    H52     23.057142   13.260689   22.343055 H          1 MOL1         0.0783
     111    O27     21.508310   13.577078   23.678335 O.3        1 MOL1        -0.5519
     112    H53     20.724427   14.177679   23.756710 H          1 MOL1         0.3769
     113    C33     22.812383   15.380156   22.643121 C.3        1 MOL1         0.1053
     114    H54     21.984312   16.077391   22.819714 H          1 MOL1         0.0783
     115    O28     23.718456   15.412116   23.750632 O.3        1 MOL1        -0.5519
     116    H55     23.263340   14.916933   24.467971 H          1 MOL1         0.3769
     117    C34     23.545722   15.813122   21.350762 C.3        1 MOL1         0.1018
     118    H56     24.490469   15.256487   21.294168 H          1 MOL1         0.0783
     119    C35     22.703390   15.553417   20.070026 C.3        1 MOL1         0.1043
     120    H57     21.877443   16.276289   20.048682 H          1 MOL1         0.0783
     121    O29     22.159001   14.210125   20.094504 O.3        1 MOL1        -0.3740
     122    C36     23.505823   15.726425   18.757895 C.3        1 MOL1         0.0138
     123    H58     23.705189   16.795688   18.608537 H          1 MOL1         0.0794
     124    H59     22.881278   15.392183   17.918701 H          1 MOL1         0.0794
     125    O30     24.741555   15.000164   18.779469 O.3        1 MOL1        -0.5486
     126    H60     25.173054   15.121632   17.905766 H          1 MOL1         0.3769
     127    N1      17.523526   17.948871   26.143496 N.4        1 MOL1        -0.5940
     128    H1      17.006796   18.826597   26.250727 H          1 MOL1         0.3649
     129    H2      17.503751   17.468106   27.048130 H          1 MOL1         0.3649
     130    H3      16.993077   17.365405   25.475811 H          1 MOL1         0.3649
     131    C1      18.935946   18.180267   25.650251 C.3        1 MOL1         0.0207
     132    H4      19.425782   17.206398   25.573590 H          1 MOL1         0.0950
     133    H5      19.471909   18.777005   26.393068 H          1 MOL1         0.0950
     134    C2      18.973755   18.884480   24.284639 C.3        1 MOL1        -0.1415
     135    H6      18.229608   18.426216   23.622939 H          1 MOL1         0.0976
     136    H7      18.685829   19.934697   24.412739 H          1 MOL1         0.0976
     137    C3      20.376498   18.801187   23.644055 C.3        1 MOL1        -0.1375
     138    H8      20.677711   17.750223   23.548558 H          1 MOL1         0.0976
     139    H9      21.104684   19.272578   24.318693 H          1 MOL1         0.0976
     140    C4      20.458450   19.491870   22.263422 C.3        1 MOL1        -0.1375
     141    H10     20.109735   20.527287   22.353400 H          1 MOL1         0.0976
     142    H11     21.512426   19.547305   21.972721 H          1 MOL1         0.0976
     143    C5      19.668818   18.762801   21.150551 C.3        1 MOL1        -0.1350
     144    H12     18.607605   18.688726   21.421170 H          1 MOL1         0.0976
     145    H13     20.044408   17.735650   21.044920 H          1 MOL1         0.0976
     146    C6      19.783794   19.492496   19.796407 C.3        1 MOL1        -0.2365
     147    H14     20.830009   19.580255   19.480632 H          1 MOL1         0.0987
     148    H15     19.353821   20.500185   19.860396 H          1 MOL1         0.0987
     149    H16     19.243457   18.945025   19.013970 H          1 MOL1         0.0987
@<TRIPOS>BOND
    1     1     2    1
    2     1     3    1
    3     1     4    1
    4     4     5    1
    5     4     6    1
    6     6     7    1
    7     4     8    1
    8     8     9    1
    9     8    10    1
   10    10    11    1
   11     8    12    1
   12    12    13    1
   13    12    14    1
   14    14    15    1
   15     1    16    1
   16    14    16    1
   17    14    17    1
   18    17    18    1
   19    17    19    1
   20    17    20    1
   21    20    21    1
   22    22    23    1
   23    22    24    1
   24    22    25    1
   25    25    26    1
   26    25    27    1
   27    27    28    1
   28    25    29    1
   29    29    30    1
   30    29    31    1
   31    31    32    1
   32     3    33    1
   33    29    33    1
   34    33    34    1
   35    33    35    1
   36    35    36    1
   37    22    37    1
   38    35    37    1
   39    35    38    1
   40    38    39    1
   41    38    40    1
   42    38    41    1
   43    41    42    1
   44    43    44    1
   45    43    45    1
   46    43    46    1
   47    46    47    1
   48    46    48    1
   49    48    49    1
   50    46    50    1
   51    50    51    1
   52    50    52    1
   53    52    53    1
   54    24    54    1
   55    50    54    1
   56    54    55    1
   57    54    56    1
   58    56    57    1
   59    43    58    1
   60    56    58    1
   61    56    59    1
   62    59    60    1
   63    59    61    1
   64    59    62    1
   65    62    63    1
   66    64    65    1
   67    64    66    1
   68    64    67    1
   69    67    68    1
   70    67    69    1
   71    69    70    1
   72    67    71    1
   73    71    72    1
   74    71    73    1
   75    73    74    1
   76    45    75    1
   77    71    75    1
   78    75    76    1
   79    75    77    1
   80    77    78    1
   81    64    79    1
   82    77    79    1
   83    77    80    1
   84    80    81    1
   85    80    82    1
   86    80    83    1
   87    83    84    1
   88    85    86    1
   89    85    87    1
   90    85    88    1
   91    88    89    1
   92    88    90    1
   93    90    91    1
   94    88    92    1
   95    92    93    1
   96    92    94    1
   97    94    95    1
   98    66    96    1
   99    92    96    1
  100    96    97    1
  101    96    98    1
  102    98    99    1
  103    85   100    1
  104    98   100    1
  105    98   101    1
  106   101   102    1
  107   101   103    1
  108   101   104    1
  109   104   105    1
  110   106   107    1
  111    12   108    1
  112   106   108    1
  113   106   109    1
  114   109   110    1
  115   109   111    1
  116   111   112    1
  117   109   113    1
  118   113   114    1
  119   113   115    1
  120   115   116    1
  121    87   117    1
  122   113   117    1
  123   117   118    1
  124   117   119    1
  125   119   120    1
  126   106   121    1
  127   119   121    1
  128   119   122    1
  129   122   123    1
  130   122   124    1
  131   122   125    1
  132   125   126    1
  133   127   128    1
  134   127   129    1
  135   127   130    1
  136   127   131    1
  137   131   132    1
  138   131   133    1
  139   131   134    1
  140   134   135    1
  141   134   136    1
  142   134   137    1
  143   137   138    1
  144   137   139    1
  145   137   140    1
  146   140   141    1
  147   140   142    1
  148   140   143    1
  149   143   144    1
  150   143   145    1
  151   143   146    1
  152   146   147    1
  153   146   148    1
  154   146   149    1
@<TRIPOS>SUBSTRUCTURE
       1 MOL1            1 RESIDUE      1      MOL     
       2 MOL1          149 RESIDUE      1      MOL     
@<SCITEGIC>MOL_PROPERTY
feprocess Rank
SciTegic.value.IntegerValue
1

@<SCITEGIC>MOL_PROPERTY
Conf_Id
SciTegic.value.IntegerValue
41

@<SCITEGIC>MOL_PROPERTY
Probability
SciTegic.value.DoubleValue
19.71

@<SCITEGIC>MOL_PROPERTY
G
SciTegic.value.DoubleValue
568.108

@<SCITEGIC>MOL_PROPERTY
E
SciTegic.value.DoubleValue
369.359

@<SCITEGIC>MOL_PROPERTY
-TS
SciTegic.value.DoubleValue
198.749

@<SCITEGIC>MOL_PROPERTY
U+W
SciTegic.value.DoubleValue
237.906

@<SCITEGIC>MOL_PROPERTY
U
SciTegic.value.DoubleValue
328.057

@<SCITEGIC>MOL_PROPERTY
W
SciTegic.value.DoubleValue
-90.151

@<SCITEGIC>MOL_PROPERTY
W(PB)
SciTegic.value.DoubleValue
-96.309

@<SCITEGIC>MOL_PROPERTY
W(SA)
SciTegic.value.DoubleValue
6.158

@<SCITEGIC>MOL_PROPERTY
Valence
SciTegic.value.DoubleValue
147.060

@<SCITEGIC>MOL_PROPERTY
Coulomb
SciTegic.value.DoubleValue
205.775

@<SCITEGIC>MOL_PROPERTY
VdW
SciTegic.value.DoubleValue
-24.779

@<SCITEGIC>MOL_PROPERTY
VdW6
SciTegic.value.DoubleValue
-179.318

@<SCITEGIC>MOL_PROPERTY
VdW12
SciTegic.value.DoubleValue
154.539

@<SCITEGIC>MOL_PROPERTY
Bond
SciTegic.value.DoubleValue
4.575

@<SCITEGIC>MOL_PROPERTY
Angle
SciTegic.value.DoubleValue
11.528

@<SCITEGIC>MOL_PROPERTY
Pdih
SciTegic.value.DoubleValue
130.957

@<SCITEGIC>MOL_PROPERTY
Idih
SciTegic.value.DoubleValue
0.000

@<SCITEGIC>MOL_PROPERTY
Tether
SciTegic.value.DoubleValue
0.000

