@<TRIPOS>MOLECULE
CD_guest-s9_fast_vm2_rndm.mol2 : feprocess host+ligand conformer 1
         146         151           2
SMALL
USER_CHARGES
 
@<TRIPOS>ATOM
       1    C1      16.207641   15.182290   20.597628 C.3        1 MOL1         0.2972
       2    H1      15.152920   15.068865   20.316069 H          1 MOL1         0.0751
       3    O1      16.521917   16.554041   20.919567 O.3        1 MOL1        -0.3740
       4    C2      16.576938   14.253327   21.789737 C.3        1 MOL1         0.1003
       5    H2      16.423563   13.219738   21.453063 H          1 MOL1         0.0783
       6    O2      15.756627   14.490382   22.943386 O.3        1 MOL1        -0.5519
       7    H3      15.969997   15.402613   23.264016 H          1 MOL1         0.3769
       8    C3      18.070358   14.420324   22.152458 C.3        1 MOL1         0.1053
       9    H4      18.211377   15.444225   22.518343 H          1 MOL1         0.0783
      10    O3      18.439550   13.485276   23.171975 O.3        1 MOL1        -0.5519
      11    H5      17.699801   13.502131   23.818919 H          1 MOL1         0.3769
      12    C4      18.970279   14.221738   20.910916 C.3        1 MOL1         0.1018
      13    H6      18.969073   13.153278   20.658510 H          1 MOL1         0.0783
      14    C5      18.479077   15.046491   19.689079 C.3        1 MOL1         0.1043
      15    H7      18.640089   16.108329   19.909790 H          1 MOL1         0.0783
      16    O4      17.061282   14.808456   19.491998 O.3        1 MOL1        -0.3740
      17    C6      19.223742   14.753895   18.362067 C.3        1 MOL1         0.0138
      18    H8      20.145506   15.349344   18.341292 H          1 MOL1         0.0794
      19    H9      18.599660   15.102957   17.528624 H          1 MOL1         0.0794
      20    O5      19.545310   13.369505   18.189154 O.3        1 MOL1        -0.5486
      21    H10     20.447478   13.239797   18.556962 H          1 MOL1         0.3769
      22    C7      15.047791   20.198559   22.115648 C.3        1 MOL1         0.2972
      23    H11     14.470045   21.052078   22.492558 H          1 MOL1         0.0751
      24    O6      16.235786   20.623388   21.417765 O.3        1 MOL1        -0.3740
      25    C8      15.463551   19.270436   23.284632 C.3        1 MOL1         0.1003
      26    H12     14.541899   18.911717   23.761260 H          1 MOL1         0.0783
      27    O7      16.265282   19.965748   24.254437 O.3        1 MOL1        -0.5519
      28    H13     16.114549   20.932234   24.116277 H          1 MOL1         0.3769
      29    C9      16.247125   18.050896   22.755573 C.3        1 MOL1         0.1053
      30    H14     17.200511   18.422479   22.365417 H          1 MOL1         0.0783
      31    O8      16.491140   17.148910   23.839097 O.3        1 MOL1        -0.5519
      32    H15     16.714143   17.734977   24.597113 H          1 MOL1         0.3769
      33    C10     15.514419   17.332519   21.594880 C.3        1 MOL1         0.1018
      34    H16     14.711696   16.709660   22.010288 H          1 MOL1         0.0783
      35    C11     14.931025   18.321096   20.544762 C.3        1 MOL1         0.1043
      36    H17     15.766708   18.720644   19.955807 H          1 MOL1         0.0783
      37    O9      14.249369   19.420138   21.200418 O.3        1 MOL1        -0.3740
      38    C12     13.949972   17.658270   19.548299 C.3        1 MOL1         0.0138
      39    H18     14.524782   17.011321   18.871984 H          1 MOL1         0.0794
      40    H19     13.490298   18.444391   18.934342 H          1 MOL1         0.0794
      41    O10     12.939197   16.889862   20.212606 O.3        1 MOL1        -0.5486
      42    H20     12.309273   16.571485   19.529491 H          1 MOL1         0.3769
      43    C13     18.429779   24.100030   20.833750 C.3        1 MOL1         0.2972
      44    H21     18.778308   25.109409   20.580556 H          1 MOL1         0.0751
      45    O11     19.522690   23.209744   21.143190 O.3        1 MOL1        -0.3740
      46    C14     17.494917   24.139048   22.068150 C.3        1 MOL1         0.1003
      47    H22     16.623889   24.751399   21.800477 H          1 MOL1         0.0783
      48    O12     18.151605   24.729679   23.200785 O.3        1 MOL1        -0.5519
      49    H23     19.087165   24.403121   23.207459 H          1 MOL1         0.3769
      50    C15     16.988657   22.717009   22.413915 C.3        1 MOL1         0.1053
      51    H24     17.848589   22.114694   22.737845 H          1 MOL1         0.0783
      52    O13     16.038051   22.813407   23.480279 O.3        1 MOL1        -0.5519
      53    H25     16.415589   23.487223   24.091108 H          1 MOL1         0.3769
      54    C16     16.358415   22.035685   21.167175 C.3        1 MOL1         0.1018
      55    H26     15.381533   22.492772   20.963752 H          1 MOL1         0.0783
      56    C17     17.255437   22.168150   19.905208 C.3        1 MOL1         0.1043
      57    H27     18.144045   21.543121   20.047086 H          1 MOL1         0.0783
      58    O14     17.676266   23.541678   19.736243 O.3        1 MOL1        -0.3740
      59    C18     16.574831   21.685825   18.600006 C.3        1 MOL1         0.0138
      60    H28     16.554975   20.587944   18.602299 H          1 MOL1         0.0794
      61    H29     17.194992   21.995680   17.748448 H          1 MOL1         0.0794
      62    O15     15.242812   22.190624   18.447581 O.3        1 MOL1        -0.5486
      63    H30     14.671568   21.711964   19.086350 H          1 MOL1         0.3769
      64    C19     23.636090   22.814354   21.033342 C.3        1 MOL1         0.2972
      65    H31     24.721331   22.935994   20.923065 H          1 MOL1         0.0751
      66    O16     23.276331   21.424556   21.193413 O.3        1 MOL1        -0.3740
      67    C20     23.096828   23.646911   22.228450 C.3        1 MOL1         0.1003
      68    H32     23.277087   24.703388   21.990205 H          1 MOL1         0.0783
      69    O17     23.766391   23.334885   23.458603 O.3        1 MOL1        -0.5519
      70    H33     23.537831   22.397045   23.678561 H          1 MOL1         0.3769
      71    C21     21.569409   23.447388   22.369707 C.3        1 MOL1         0.1053
      72    H34     21.379418   22.396753   22.627499 H          1 MOL1         0.0783
      73    O18     21.069422   24.297324   23.406545 O.3        1 MOL1        -0.5519
      74    H35     21.713890   24.209653   24.144091 H          1 MOL1         0.3769
      75    C22     20.847684   23.763893   21.036576 C.3        1 MOL1         0.1018
      76    H36     20.831857   24.854113   20.907741 H          1 MOL1         0.0783
      77    C23     21.530189   23.101657   19.806242 C.3        1 MOL1         0.1043
      78    H37     21.319763   22.024930   19.835517 H          1 MOL1         0.0783
      79    O19     22.965797   23.303940   19.852605 O.3        1 MOL1        -0.3740
      80    C24     21.003553   23.638367   18.453656 C.3        1 MOL1         0.0138
      81    H38     19.973276   23.284258   18.315330 H          1 MOL1         0.0794
      82    H39     21.608507   23.206472   17.645252 H          1 MOL1         0.0794
      83    O20     21.036584   25.069991   18.390731 O.3        1 MOL1        -0.5486
      84    H40     20.724869   25.335882   17.498225 H          1 MOL1         0.3769
      85    C25     24.713824   17.704179   22.318073 C.3        1 MOL1         0.2972
      86    H41     25.301411   16.860162   22.700664 H          1 MOL1         0.0751
      87    O21     23.596725   17.255832   21.521886 O.3        1 MOL1        -0.3740
      88    C26     24.187021   18.575410   23.489231 C.3        1 MOL1         0.1003
      89    H42     25.064165   18.943358   24.037613 H          1 MOL1         0.0783
      90    O22     23.351386   17.821457   24.384254 O.3        1 MOL1        -0.5519
      91    H43     23.696841   16.894933   24.372173 H          1 MOL1         0.3769
      92    C27     23.405817   19.794790   22.952848 C.3        1 MOL1         0.1053
      93    H44     22.505489   19.422994   22.457029 H          1 MOL1         0.0783
      94    O23     23.037116   20.627638   24.055284 O.3        1 MOL1        -0.5519
      95    H45     22.790007   19.998826   24.769394 H          1 MOL1         0.3769
      96    C28     24.217338   20.588270   21.899517 C.3        1 MOL1         0.1018
      97    H46     24.989251   21.174497   22.415409 H          1 MOL1         0.0783
      98    C29     24.877213   19.658268   20.841987 C.3        1 MOL1         0.1043
      99    H47     24.085025   19.268836   20.189158 H          1 MOL1         0.0783
     100    O24     25.543849   18.545623   21.490031 O.3        1 MOL1        -0.3740
     101    C30     25.901644   20.383889   19.936936 C.3        1 MOL1         0.0138
     102    H48     25.354744   21.055161   19.261020 H          1 MOL1         0.0794
     103    H49     26.409449   19.636014   19.313236 H          1 MOL1         0.0794
     104    O25     26.858996   21.133767   20.695416 O.3        1 MOL1        -0.5486
     105    H50     27.520257   21.495919   20.065829 H          1 MOL1         0.3769
     106    C31     21.366198   13.787745   21.028385 C.3        1 MOL1         0.2972
     107    H51     21.012299   12.770799   20.817008 H          1 MOL1         0.0751
     108    O26     20.276310   14.693470   21.287889 O.3        1 MOL1        -0.3740
     109    C32     22.266528   13.775613   22.283948 C.3        1 MOL1         0.1003
     110    H52     23.113786   13.109044   22.076179 H          1 MOL1         0.0783
     111    O27     21.538037   13.280333   23.419909 O.3        1 MOL1        -0.5519
     112    H53     20.587640   13.522471   23.287815 H          1 MOL1         0.3769
     113    C33     22.827873   15.185416   22.582197 C.3        1 MOL1         0.1053
     114    H54     21.991528   15.820528   22.896659 H          1 MOL1         0.0783
     115    O28     23.776591   15.068522   23.648474 O.3        1 MOL1        -0.5519
     116    H55     23.374537   14.417927   24.268836 H          1 MOL1         0.3769
     117    C34     23.470322   15.831567   21.321079 C.3        1 MOL1         0.1018
     118    H56     24.447324   15.366928   21.137164 H          1 MOL1         0.0783
     119    C35     22.579862   15.669926   20.057062 C.3        1 MOL1         0.1043
     120    H57     21.702214   16.318038   20.175496 H          1 MOL1         0.0783
     121    O29     22.136385   14.297746   19.921609 O.3        1 MOL1        -0.3740
     122    C36     23.280562   16.098862   18.744111 C.3        1 MOL1         0.0138
     123    H58     23.371632   17.193355   18.737145 H          1 MOL1         0.0794
     124    H59     22.637149   15.821986   17.898591 H          1 MOL1         0.0794
     125    O30     24.575284   15.505985   18.588645 O.3        1 MOL1        -0.5486
     126    H60     25.183128   15.954267   19.214992 H          1 MOL1         0.3769
     127    C1      19.993309   19.097038   19.817340 C.3        1 MOL1        -0.2224
     128    H1      19.276052   18.328224   19.504263 H          1 MOL1         0.1052
     129    H2      19.846530   19.974285   19.174699 H          1 MOL1         0.1052
     130    H3      21.008174   18.718284   19.639508 H          1 MOL1         0.1052
     131    C2      19.795150   19.468823   21.301631 C.3        1 MOL1        -0.1209
     132    H4      18.781835   19.860700   21.453851 H          1 MOL1         0.1041
     133    H5      20.485160   20.282524   21.566543 H          1 MOL1         0.1041
     134    C3      20.024710   18.261937   22.236893 C.3        1 MOL1        -0.1274
     135    H6      19.321055   17.456204   21.993148 H          1 MOL1         0.1041
     136    H7      21.029765   17.857001   22.074205 H          1 MOL1         0.1041
     137    C4      19.859628   18.670447   23.715488 C.3        1 MOL1         0.0313
     138    H8      18.799576   18.804200   23.948269 H          1 MOL1         0.1015
     139    H9      20.363505   19.627275   23.876943 H          1 MOL1         0.1015
     140    N1      20.449952   17.692055   24.716799 N.4        1 MOL1        -0.4809
     141    H10     20.347603   18.069996   25.670321 H          1 MOL1         0.3726
     142    H11     21.476455   17.620575   24.573563 H          1 MOL1         0.3726
     143    C5      19.790158   16.321134   24.628146 C.3        1 MOL1        -0.0677
     144    H12     19.964188   15.898814   23.636541 H          1 MOL1         0.1026
     145    H13     20.224863   15.664576   25.384972 H          1 MOL1         0.1026
     146    H14     18.716972   16.424588   24.801666 H          1 MOL1         0.1026
@<TRIPOS>BOND
    1     1     2    1
    2     1     3    1
    3     1     4    1
    4     4     5    1
    5     4     6    1
    6     6     7    1
    7     4     8    1
    8     8     9    1
    9     8    10    1
   10    10    11    1
   11     8    12    1
   12    12    13    1
   13    12    14    1
   14    14    15    1
   15     1    16    1
   16    14    16    1
   17    14    17    1
   18    17    18    1
   19    17    19    1
   20    17    20    1
   21    20    21    1
   22    22    23    1
   23    22    24    1
   24    22    25    1
   25    25    26    1
   26    25    27    1
   27    27    28    1
   28    25    29    1
   29    29    30    1
   30    29    31    1
   31    31    32    1
   32     3    33    1
   33    29    33    1
   34    33    34    1
   35    33    35    1
   36    35    36    1
   37    22    37    1
   38    35    37    1
   39    35    38    1
   40    38    39    1
   41    38    40    1
   42    38    41    1
   43    41    42    1
   44    43    44    1
   45    43    45    1
   46    43    46    1
   47    46    47    1
   48    46    48    1
   49    48    49    1
   50    46    50    1
   51    50    51    1
   52    50    52    1
   53    52    53    1
   54    24    54    1
   55    50    54    1
   56    54    55    1
   57    54    56    1
   58    56    57    1
   59    43    58    1
   60    56    58    1
   61    56    59    1
   62    59    60    1
   63    59    61    1
   64    59    62    1
   65    62    63    1
   66    64    65    1
   67    64    66    1
   68    64    67    1
   69    67    68    1
   70    67    69    1
   71    69    70    1
   72    67    71    1
   73    71    72    1
   74    71    73    1
   75    73    74    1
   76    45    75    1
   77    71    75    1
   78    75    76    1
   79    75    77    1
   80    77    78    1
   81    64    79    1
   82    77    79    1
   83    77    80    1
   84    80    81    1
   85    80    82    1
   86    80    83    1
   87    83    84    1
   88    85    86    1
   89    85    87    1
   90    85    88    1
   91    88    89    1
   92    88    90    1
   93    90    91    1
   94    88    92    1
   95    92    93    1
   96    92    94    1
   97    94    95    1
   98    66    96    1
   99    92    96    1
  100    96    97    1
  101    96    98    1
  102    98    99    1
  103    85   100    1
  104    98   100    1
  105    98   101    1
  106   101   102    1
  107   101   103    1
  108   101   104    1
  109   104   105    1
  110   106   107    1
  111    12   108    1
  112   106   108    1
  113   106   109    1
  114   109   110    1
  115   109   111    1
  116   111   112    1
  117   109   113    1
  118   113   114    1
  119   113   115    1
  120   115   116    1
  121    87   117    1
  122   113   117    1
  123   117   118    1
  124   117   119    1
  125   119   120    1
  126   106   121    1
  127   119   121    1
  128   119   122    1
  129   122   123    1
  130   122   124    1
  131   122   125    1
  132   125   126    1
  133   127   128    1
  134   127   129    1
  135   127   130    1
  136   127   131    1
  137   131   132    1
  138   131   133    1
  139   131   134    1
  140   134   135    1
  141   134   136    1
  142   134   137    1
  143   137   138    1
  144   137   139    1
  145   137   140    1
  146   140   141    1
  147   140   142    1
  148   140   143    1
  149   143   144    1
  150   143   145    1
  151   143   146    1
@<TRIPOS>SUBSTRUCTURE
       1 MOL1            1 RESIDUE      1      MOL     
       2 MOL1          146 RESIDUE      1      MOL     
@<SCITEGIC>MOL_PROPERTY
feprocess Rank
SciTegic.value.IntegerValue
1

@<SCITEGIC>MOL_PROPERTY
Conf_Id
SciTegic.value.IntegerValue
401

@<SCITEGIC>MOL_PROPERTY
Probability
SciTegic.value.DoubleValue
49.72

@<SCITEGIC>MOL_PROPERTY
G
SciTegic.value.DoubleValue
585.796

@<SCITEGIC>MOL_PROPERTY
E
SciTegic.value.DoubleValue
393.016

@<SCITEGIC>MOL_PROPERTY
-TS
SciTegic.value.DoubleValue
192.780

@<SCITEGIC>MOL_PROPERTY
U+W
SciTegic.value.DoubleValue
264.245

@<SCITEGIC>MOL_PROPERTY
U
SciTegic.value.DoubleValue
350.295

@<SCITEGIC>MOL_PROPERTY
W
SciTegic.value.DoubleValue
-86.050

@<SCITEGIC>MOL_PROPERTY
W(PB)
SciTegic.value.DoubleValue
-92.112

@<SCITEGIC>MOL_PROPERTY
W(SA)
SciTegic.value.DoubleValue
6.062

@<SCITEGIC>MOL_PROPERTY
Valence
SciTegic.value.DoubleValue
145.465

@<SCITEGIC>MOL_PROPERTY
Coulomb
SciTegic.value.DoubleValue
228.788

@<SCITEGIC>MOL_PROPERTY
VdW
SciTegic.value.DoubleValue
-23.958

@<SCITEGIC>MOL_PROPERTY
VdW6
SciTegic.value.DoubleValue
-177.184

@<SCITEGIC>MOL_PROPERTY
VdW12
SciTegic.value.DoubleValue
153.226

@<SCITEGIC>MOL_PROPERTY
Bond
SciTegic.value.DoubleValue
4.647

@<SCITEGIC>MOL_PROPERTY
Angle
SciTegic.value.DoubleValue
11.910

@<SCITEGIC>MOL_PROPERTY
Pdih
SciTegic.value.DoubleValue
128.908

@<SCITEGIC>MOL_PROPERTY
Idih
SciTegic.value.DoubleValue
0.000

@<SCITEGIC>MOL_PROPERTY
Tether
SciTegic.value.DoubleValue
0.000

@<TRIPOS>MOLECULE
CD_guest-s9_fast_vm2_rndm.mol2 : feprocess host+ligand conformer 2
         146         151           2
SMALL
USER_CHARGES
 
@<TRIPOS>ATOM
       1    C1      16.500795   15.459152   22.040666 C.3        1 MOL1         0.2972
       2    H1      15.460311   15.424754   22.387755 H          1 MOL1         0.0751
       3    O1      16.832754   16.748845   21.494054 O.3        1 MOL1        -0.3740
       4    C2      17.457311   15.169235   23.221102 C.3        1 MOL1         0.1003
       5    H2      17.205310   14.172226   23.605762 H          1 MOL1         0.0783
       6    O2      17.297288   16.145466   24.268984 O.3        1 MOL1        -0.5519
       7    H3      16.380722   16.500684   24.185738 H          1 MOL1         0.3769
       8    C3      18.926568   15.153239   22.746262 C.3        1 MOL1         0.1053
       9    H4      19.196983   16.180401   22.476361 H          1 MOL1         0.0783
      10    O3      19.746748   14.703821   23.827275 O.3        1 MOL1        -0.5519
      11    H5      19.337589   15.082410   24.634512 H          1 MOL1         0.3769
      12    C4      19.147316   14.269134   21.491455 C.3        1 MOL1         0.1018
      13    H6      19.205338   13.216177   21.797423 H          1 MOL1         0.0783
      14    C5      18.039455   14.457039   20.416537 C.3        1 MOL1         0.1043
      15    H7      18.211714   15.424303   19.929676 H          1 MOL1         0.0783
      16    O4      16.720833   14.465417   21.018356 O.3        1 MOL1        -0.3740
      17    C6      18.069982   13.378977   19.307102 C.3        1 MOL1         0.0138
      18    H8      18.966736   13.537324   18.692806 H          1 MOL1         0.0794
      19    H9      17.198215   13.521331   18.654350 H          1 MOL1         0.0794
      20    O5      18.078829   12.050954   19.845034 O.3        1 MOL1        -0.5486
      21    H10     18.022769   11.423455   19.091474 H          1 MOL1         0.3769
      22    C7      14.906689   20.299913   20.511707 C.3        1 MOL1         0.2972
      23    H11     14.235022   21.077397   20.125200 H          1 MOL1         0.0751
      24    O6      16.158492   20.852496   20.968159 O.3        1 MOL1        -0.3740
      25    C8      14.253235   19.513897   21.680894 C.3        1 MOL1         0.1003
      26    H12     13.368802   19.005370   21.275390 H          1 MOL1         0.0783
      27    O7      13.838122   20.383838   22.744239 O.3        1 MOL1        -0.5519
      28    H13     14.634771   20.892499   23.040432 H          1 MOL1         0.3769
      29    C9      15.226239   18.428773   22.206730 C.3        1 MOL1         0.1053
      30    H14     16.097605   18.936167   22.639229 H          1 MOL1         0.0783
      31    O8      14.577731   17.648419   23.217388 O.3        1 MOL1        -0.5519
      32    H15     14.088561   18.300248   23.768007 H          1 MOL1         0.3769
      33    C10     15.710342   17.524775   21.040183 C.3        1 MOL1         0.1018
      34    H16     14.877015   16.882923   20.725579 H          1 MOL1         0.0783
      35    C11     16.204440   18.346064   19.818442 C.3        1 MOL1         0.1043
      36    H17     17.136702   18.851998   20.098439 H          1 MOL1         0.0783
      37    O9      15.209129   19.340913   19.472871 O.3        1 MOL1        -0.3740
      38    C12     16.524314   17.488757   18.566092 C.3        1 MOL1         0.0138
      39    H18     17.561667   17.139233   18.642997 H          1 MOL1         0.0794
      40    H19     16.471460   18.131722   17.677394 H          1 MOL1         0.0794
      41    O10     15.650919   16.362326   18.413227 O.3        1 MOL1        -0.5486
      42    H20     15.823795   15.751400   19.164355 H          1 MOL1         0.3769
      43    C13     18.374624   24.177790   21.731972 C.3        1 MOL1         0.2972
      44    H21     18.824130   25.159772   21.928426 H          1 MOL1         0.0751
      45    O11     19.372292   23.159510   21.514327 O.3        1 MOL1        -0.3740
      46    C14     17.497672   23.746250   22.929101 C.3        1 MOL1         0.1003
      47    H22     16.667172   24.459590   23.011248 H          1 MOL1         0.0783
      48    O12     18.254786   23.751648   24.150223 O.3        1 MOL1        -0.5519
      49    H23     19.212700   23.740643   23.901442 H          1 MOL1         0.3769
      50    C15     16.907677   22.343893   22.671301 C.3        1 MOL1         0.1053
      51    H24     17.742321   21.635808   22.659521 H          1 MOL1         0.0783
      52    O13     16.014124   22.003636   23.734062 O.3        1 MOL1        -0.5519
      53    H25     16.479004   22.291146   24.552307 H          1 MOL1         0.3769
      54    C16     16.188333   22.253515   21.300358 C.3        1 MOL1         0.1018
      55    H26     15.181293   22.679778   21.400400 H          1 MOL1         0.0783
      56    C17     16.965498   22.953642   20.144266 C.3        1 MOL1         0.1043
      57    H27     17.788410   22.289754   19.850639 H          1 MOL1         0.0783
      58    O14     17.526263   24.224665   20.566888 O.3        1 MOL1        -0.3740
      59    C18     16.105679   23.189749   18.880086 C.3        1 MOL1         0.0138
      60    H28     15.896815   22.217260   18.413934 H          1 MOL1         0.0794
      61    H29     16.692563   23.777096   18.161093 H          1 MOL1         0.0794
      62    O15     14.874770   23.857712   19.182680 O.3        1 MOL1        -0.5486
      63    H30     14.418767   24.042380   18.332505 H          1 MOL1         0.3769
      64    C19     23.470261   22.665798   20.988001 C.3        1 MOL1         0.2972
      65    H31     24.533901   22.806251   20.756937 H          1 MOL1         0.0751
      66    O16     23.157147   21.269855   21.185566 O.3        1 MOL1        -0.3740
      67    C20     23.056703   23.488032   22.242967 C.3        1 MOL1         0.1003
      68    H32     23.240510   24.544195   22.006426 H          1 MOL1         0.0783
      69    O17     23.823737   23.137000   23.404215 O.3        1 MOL1        -0.5519
      70    H33     23.602170   22.196398   23.621195 H          1 MOL1         0.3769
      71    C21     21.545356   23.324447   22.531979 C.3        1 MOL1         0.1053
      72    H34     21.363962   22.282581   22.826927 H          1 MOL1         0.0783
      73    O18     21.161113   24.200972   23.595798 O.3        1 MOL1        -0.5519
      74    H35     21.877186   24.122153   24.265510 H          1 MOL1         0.3769
      75    C22     20.706908   23.630146   21.267020 C.3        1 MOL1         0.1018
      76    H36     20.736555   24.711641   21.079671 H          1 MOL1         0.0783
      77    C23     21.236166   22.884926   20.012314 C.3        1 MOL1         0.1043
      78    H37     21.067533   21.809820   20.150022 H          1 MOL1         0.0783
      79    O19     22.658844   23.132702   19.884641 O.3        1 MOL1        -0.3740
      80    C24     20.527120   23.275210   18.688465 C.3        1 MOL1         0.0138
      81    H38     19.667115   22.608045   18.547522 H          1 MOL1         0.0794
      82    H39     21.215328   23.086571   17.853722 H          1 MOL1         0.0794
      83    O20     20.079903   24.636386   18.661073 O.3        1 MOL1        -0.5486
      84    H40     19.282234   24.691128   19.235997 H          1 MOL1         0.3769
      85    C25     24.757545   17.561863   22.067087 C.3        1 MOL1         0.2972
      86    H41     25.376310   16.712261   22.382818 H          1 MOL1         0.0751
      87    O21     23.613286   17.131482   21.301644 O.3        1 MOL1        -0.3740
      88    C26     24.272399   18.365311   23.302071 C.3        1 MOL1         0.1003
      89    H42     25.167395   18.723457   23.827401 H          1 MOL1         0.0783
      90    O22     23.488800   17.556829   24.195644 O.3        1 MOL1        -0.5519
      91    H43     23.720467   16.614498   24.013541 H          1 MOL1         0.3769
      92    C27     23.443267   19.591168   22.864038 C.3        1 MOL1         0.1053
      93    H44     22.517309   19.213838   22.417297 H          1 MOL1         0.0783
      94    O23     23.137391   20.381480   24.016984 O.3        1 MOL1        -0.5519
      95    H45     22.956551   19.721602   24.723791 H          1 MOL1         0.3769
      96    C28     24.170778   20.443919   21.795616 C.3        1 MOL1         0.1018
      97    H46     24.950891   21.038343   22.288772 H          1 MOL1         0.0783
      98    C29     24.801498   19.576471   20.669090 C.3        1 MOL1         0.1043
      99    H47     23.988070   19.191937   20.039952 H          1 MOL1         0.0783
     100    O24     25.528397   18.458457   21.239702 O.3        1 MOL1        -0.3740
     101    C30     25.760725   20.362964   19.743645 C.3        1 MOL1         0.0138
     102    H48     25.163517   21.037897   19.115799 H          1 MOL1         0.0794
     103    H49     26.260823   19.651698   19.072661 H          1 MOL1         0.0794
     104    O25     26.730029   21.117289   20.482047 O.3        1 MOL1        -0.5486
     105    H50     27.352932   21.516117   19.835732 H          1 MOL1         0.3769
     106    C31     21.387829   13.752815   20.577956 C.3        1 MOL1         0.2972
     107    H51     20.948138   12.789865   20.287799 H          1 MOL1         0.0751
     108    O26     20.370130   14.732142   20.883184 O.3        1 MOL1        -0.3740
     109    C32     22.359484   13.596484   21.776797 C.3        1 MOL1         0.1003
     110    H52     23.206872   12.993898   21.424132 H          1 MOL1         0.0783
     111    O27     21.754233   12.920898   22.887702 O.3        1 MOL1        -0.5519
     112    H53     21.032046   13.509396   23.221902 H          1 MOL1         0.3769
     113    C33     22.908511   14.980699   22.199596 C.3        1 MOL1         0.1053
     114    H54     22.069572   15.583344   22.573515 H          1 MOL1         0.0783
     115    O28     23.873587   14.798807   23.241944 O.3        1 MOL1        -0.5519
     116    H55     23.505040   14.081536   23.806435 H          1 MOL1         0.3769
     117    C34     23.540387   15.725945   20.988803 C.3        1 MOL1         0.1018
     118    H56     24.536316   15.308270   20.795003 H          1 MOL1         0.0783
     119    C35     22.686225   15.627471   19.690224 C.3        1 MOL1         0.1043
     120    H57     21.832583   16.307931   19.792106 H          1 MOL1         0.0783
     121    O29     22.183976   14.280911   19.496598 O.3        1 MOL1        -0.3740
     122    C36     23.447247   16.064954   18.414463 C.3        1 MOL1         0.0138
     123    H58     23.605941   17.150969   18.456365 H          1 MOL1         0.0794
     124    H59     22.808376   15.864524   17.544155 H          1 MOL1         0.0794
     125    O30     24.705771   15.396707   18.262099 O.3        1 MOL1        -0.5486
     126    H60     25.335718   15.800179   18.896934 H          1 MOL1         0.3769
     127    C1      20.172490   18.474568   20.803244 C.3        1 MOL1        -0.2224
     128    H1      20.981853   17.891826   21.258383 H          1 MOL1         0.1052
     129    H2      19.349334   17.785694   20.575235 H          1 MOL1         0.1052
     130    H3      20.547864   18.879926   19.855035 H          1 MOL1         0.1052
     131    C2      19.704618   19.614787   21.735490 C.3        1 MOL1        -0.1209
     132    H4      18.932165   20.203124   21.221757 H          1 MOL1         0.1041
     133    H5      20.537085   20.303440   21.928427 H          1 MOL1         0.1041
     134    C3      19.141124   19.097432   23.078109 C.3        1 MOL1        -0.1274
     135    H6      18.748046   19.939600   23.660825 H          1 MOL1         0.1041
     136    H7      18.295185   18.429631   22.881781 H          1 MOL1         0.1041
     137    C4      20.188678   18.357612   23.928960 C.3        1 MOL1         0.0313
     138    H8      20.993946   19.041675   24.206086 H          1 MOL1         0.1015
     139    H9      20.622481   17.533034   23.358065 H          1 MOL1         0.1015
     140    N1      19.605952   17.776710   25.199518 N.4        1 MOL1        -0.4809
     141    H10     18.804622   17.157247   24.966763 H          1 MOL1         0.3726
     142    H11     19.210424   18.524726   25.787297 H          1 MOL1         0.3726
     143    C5      20.690665   17.019623   25.953500 C.3        1 MOL1        -0.0677
     144    H12     21.492484   17.712328   26.218463 H          1 MOL1         0.1026
     145    H13     20.263582   16.582688   26.858515 H          1 MOL1         0.1026
     146    H14     21.091987   16.231288   25.312495 H          1 MOL1         0.1026
@<TRIPOS>BOND
    1     1     2    1
    2     1     3    1
    3     1     4    1
    4     4     5    1
    5     4     6    1
    6     6     7    1
    7     4     8    1
    8     8     9    1
    9     8    10    1
   10    10    11    1
   11     8    12    1
   12    12    13    1
   13    12    14    1
   14    14    15    1
   15     1    16    1
   16    14    16    1
   17    14    17    1
   18    17    18    1
   19    17    19    1
   20    17    20    1
   21    20    21    1
   22    22    23    1
   23    22    24    1
   24    22    25    1
   25    25    26    1
   26    25    27    1
   27    27    28    1
   28    25    29    1
   29    29    30    1
   30    29    31    1
   31    31    32    1
   32     3    33    1
   33    29    33    1
   34    33    34    1
   35    33    35    1
   36    35    36    1
   37    22    37    1
   38    35    37    1
   39    35    38    1
   40    38    39    1
   41    38    40    1
   42    38    41    1
   43    41    42    1
   44    43    44    1
   45    43    45    1
   46    43    46    1
   47    46    47    1
   48    46    48    1
   49    48    49    1
   50    46    50    1
   51    50    51    1
   52    50    52    1
   53    52    53    1
   54    24    54    1
   55    50    54    1
   56    54    55    1
   57    54    56    1
   58    56    57    1
   59    43    58    1
   60    56    58    1
   61    56    59    1
   62    59    60    1
   63    59    61    1
   64    59    62    1
   65    62    63    1
   66    64    65    1
   67    64    66    1
   68    64    67    1
   69    67    68    1
   70    67    69    1
   71    69    70    1
   72    67    71    1
   73    71    72    1
   74    71    73    1
   75    73    74    1
   76    45    75    1
   77    71    75    1
   78    75    76    1
   79    75    77    1
   80    77    78    1
   81    64    79    1
   82    77    79    1
   83    77    80    1
   84    80    81    1
   85    80    82    1
   86    80    83    1
   87    83    84    1
   88    85    86    1
   89    85    87    1
   90    85    88    1
   91    88    89    1
   92    88    90    1
   93    90    91    1
   94    88    92    1
   95    92    93    1
   96    92    94    1
   97    94    95    1
   98    66    96    1
   99    92    96    1
  100    96    97    1
  101    96    98    1
  102    98    99    1
  103    85   100    1
  104    98   100    1
  105    98   101    1
  106   101   102    1
  107   101   103    1
  108   101   104    1
  109   104   105    1
  110   106   107    1
  111    12   108    1
  112   106   108    1
  113   106   109    1
  114   109   110    1
  115   109   111    1
  116   111   112    1
  117   109   113    1
  118   113   114    1
  119   113   115    1
  120   115   116    1
  121    87   117    1
  122   113   117    1
  123   117   118    1
  124   117   119    1
  125   119   120    1
  126   106   121    1
  127   119   121    1
  128   119   122    1
  129   122   123    1
  130   122   124    1
  131   122   125    1
  132   125   126    1
  133   127   128    1
  134   127   129    1
  135   127   130    1
  136   127   131    1
  137   131   132    1
  138   131   133    1
  139   131   134    1
  140   134   135    1
  141   134   136    1
  142   134   137    1
  143   137   138    1
  144   137   139    1
  145   137   140    1
  146   140   141    1
  147   140   142    1
  148   140   143    1
  149   143   144    1
  150   143   145    1
  151   143   146    1
@<TRIPOS>SUBSTRUCTURE
       1 MOL1            1 RESIDUE      1      MOL     
       2 MOL1          146 RESIDUE      1      MOL     
@<SCITEGIC>MOL_PROPERTY
feprocess Rank
SciTegic.value.IntegerValue
2

@<SCITEGIC>MOL_PROPERTY
Conf_Id
SciTegic.value.IntegerValue
80

@<SCITEGIC>MOL_PROPERTY
Probability
SciTegic.value.DoubleValue
22.69

@<SCITEGIC>MOL_PROPERTY
G
SciTegic.value.DoubleValue
586.263

@<SCITEGIC>MOL_PROPERTY
E
SciTegic.value.DoubleValue
392.847

@<SCITEGIC>MOL_PROPERTY
-TS
SciTegic.value.DoubleValue
193.416

@<SCITEGIC>MOL_PROPERTY
U+W
SciTegic.value.DoubleValue
264.076

@<SCITEGIC>MOL_PROPERTY
U
SciTegic.value.DoubleValue
348.850

@<SCITEGIC>MOL_PROPERTY
W
SciTegic.value.DoubleValue
-84.774

@<SCITEGIC>MOL_PROPERTY
W(PB)
SciTegic.value.DoubleValue
-90.868

@<SCITEGIC>MOL_PROPERTY
W(SA)
SciTegic.value.DoubleValue
6.095

@<SCITEGIC>MOL_PROPERTY
Valence
SciTegic.value.DoubleValue
146.050

@<SCITEGIC>MOL_PROPERTY
Coulomb
SciTegic.value.DoubleValue
226.527

@<SCITEGIC>MOL_PROPERTY
VdW
SciTegic.value.DoubleValue
-23.727

@<SCITEGIC>MOL_PROPERTY
VdW6
SciTegic.value.DoubleValue
-178.249

@<SCITEGIC>MOL_PROPERTY
VdW12
SciTegic.value.DoubleValue
154.522

@<SCITEGIC>MOL_PROPERTY
Bond
SciTegic.value.DoubleValue
4.761

@<SCITEGIC>MOL_PROPERTY
Angle
SciTegic.value.DoubleValue
12.651

@<SCITEGIC>MOL_PROPERTY
Pdih
SciTegic.value.DoubleValue
128.638

@<SCITEGIC>MOL_PROPERTY
Idih
SciTegic.value.DoubleValue
0.000

@<SCITEGIC>MOL_PROPERTY
Tether
SciTegic.value.DoubleValue
0.000

@<TRIPOS>MOLECULE
CD_guest-s9_fast_vm2_rndm.mol2 : feprocess host+ligand conformer 3
         146         151           2
SMALL
USER_CHARGES
 
@<TRIPOS>ATOM
       1    C1      16.483799   15.393362   21.888524 C.3        1 MOL1         0.2972
       2    H1      15.449937   15.283837   22.239343 H          1 MOL1         0.0751
       3    O1      16.687620   16.662086   21.233002 O.3        1 MOL1        -0.3740
       4    C2      17.469298   15.279037   23.080774 C.3        1 MOL1         0.1003
       5    H2      17.295668   14.300862   23.548146 H          1 MOL1         0.0783
       6    O2      17.246533   16.317151   24.051537 O.3        1 MOL1        -0.5519
       7    H3      16.283858   16.540042   24.008922 H          1 MOL1         0.3769
       8    C3      18.936920   15.331632   22.599948 C.3        1 MOL1         0.1053
       9    H4      19.133199   16.343885   22.234366 H          1 MOL1         0.0783
      10    O3      19.794127   15.045422   23.709023 O.3        1 MOL1        -0.5519
      11    H5      19.384887   15.506457   24.473629 H          1 MOL1         0.3769
      12    C4      19.214453   14.358246   21.427946 C.3        1 MOL1         0.1018
      13    H6      19.298005   13.337928   21.824544 H          1 MOL1         0.0783
      14    C5      18.107994   14.411254   20.338347 C.3        1 MOL1         0.1043
      15    H7      18.202289   15.363567   19.800519 H          1 MOL1         0.0783
      16    O4      16.798246   14.341846   20.952203 O.3        1 MOL1        -0.3740
      17    C6      18.219255   13.279093   19.289079 C.3        1 MOL1         0.0138
      18    H8      19.091440   13.479690   18.652255 H          1 MOL1         0.0794
      19    H9      17.330491   13.311133   18.644597 H          1 MOL1         0.0794
      20    O5      18.348968   11.987180   19.896019 O.3        1 MOL1        -0.5486
      21    H10     18.329726   11.317215   19.178021 H          1 MOL1         0.3769
      22    C7      14.729658   20.308810   20.882740 C.3        1 MOL1         0.2972
      23    H11     14.031561   21.129771   20.674489 H          1 MOL1         0.0751
      24    O6      16.039305   20.792055   21.245689 O.3        1 MOL1        -0.3740
      25    C8      14.206968   19.420881   22.039039 C.3        1 MOL1         0.1003
      26    H12     13.253567   18.985957   21.711581 H          1 MOL1         0.0783
      27    O7      13.984087   20.190004   23.231410 O.3        1 MOL1        -0.5519
      28    H13     14.759281   20.795896   23.348236 H          1 MOL1         0.3769
      29    C9      15.188174   18.256619   22.319072 C.3        1 MOL1         0.1053
      30    H14     16.126795   18.686225   22.692468 H          1 MOL1         0.0783
      31    O8      14.616758   17.408156   23.321542 O.3        1 MOL1        -0.5519
      32    H15     14.188862   18.026745   23.957049 H          1 MOL1         0.3769
      33    C10     15.504120   17.461711   21.018933 C.3        1 MOL1         0.1018
      34    H16     14.642841   16.833762   20.755111 H          1 MOL1         0.0783
      35    C11     15.831339   18.396411   19.821042 C.3        1 MOL1         0.1043
      36    H17     16.821835   18.833903   19.991120 H          1 MOL1         0.0783
      37    O9      14.861204   19.466295   19.721102 O.3        1 MOL1        -0.3740
      38    C12     15.876945   17.651538   18.465320 C.3        1 MOL1         0.0138
      39    H18     16.726013   16.955337   18.478477 H          1 MOL1         0.0794
      40    H19     16.064253   18.383946   17.668795 H          1 MOL1         0.0794
      41    O10     14.665589   16.931617   18.204132 O.3        1 MOL1        -0.5486
      42    H20     14.750003   16.515002   17.319119 H          1 MOL1         0.3769
      43    C13     18.374867   24.160347   21.580739 C.3        1 MOL1         0.2972
      44    H21     18.806952   25.166994   21.647845 H          1 MOL1         0.0751
      45    O11     19.389292   23.136869   21.537299 O.3        1 MOL1        -0.3740
      46    C14     17.474269   23.890654   22.808504 C.3        1 MOL1         0.1003
      47    H22     16.643958   24.608354   22.781043 H          1 MOL1         0.0783
      48    O12     18.209299   24.057262   24.031569 O.3        1 MOL1        -0.5519
      49    H23     19.164580   23.897735   23.824981 H          1 MOL1         0.3769
      50    C15     16.885833   22.467087   22.726440 C.3        1 MOL1         0.1053
      51    H24     17.720090   21.762703   22.807020 H          1 MOL1         0.0783
      52    O13     15.975803   22.261859   23.810250 O.3        1 MOL1        -0.5519
      53    H25     16.418317   22.667895   24.589365 H          1 MOL1         0.3769
      54    C16     16.177283   22.220921   21.372779 C.3        1 MOL1         0.1018
      55    H26     15.206537   22.733588   21.394298 H          1 MOL1         0.0783
      56    C17     17.010818   22.709211   20.152198 C.3        1 MOL1         0.1043
      57    H27     17.835111   21.999936   20.004630 H          1 MOL1         0.0783
      58    O14     17.564277   24.029832   20.394665 O.3        1 MOL1        -0.3740
      59    C18     16.200823   22.750801   18.834684 C.3        1 MOL1         0.0138
      60    H28     15.984354   21.719294   18.525395 H          1 MOL1         0.0794
      61    H29     16.825229   23.202601   18.052265 H          1 MOL1         0.0794
      62    O15     14.976219   23.480904   18.978753 O.3        1 MOL1        -0.5486
      63    H30     14.542785   23.512537   18.098093 H          1 MOL1         0.3769
      64    C19     23.498321   22.657546   20.992276 C.3        1 MOL1         0.2972
      65    H31     24.558297   22.818808   20.757990 H          1 MOL1         0.0751
      66    O16     23.213756   21.256306   21.189383 O.3        1 MOL1        -0.3740
      67    C20     23.073067   23.469410   22.250317 C.3        1 MOL1         0.1003
      68    H32     23.237993   24.529153   22.015898 H          1 MOL1         0.0783
      69    O17     23.847670   23.130767   23.410298 O.3        1 MOL1        -0.5519
      70    H33     23.638410   22.187976   23.629677 H          1 MOL1         0.3769
      71    C21     21.565067   23.278766   22.539405 C.3        1 MOL1         0.1053
      72    H34     21.394633   22.229005   22.815844 H          1 MOL1         0.0783
      73    O18     21.169574   24.136518   23.614632 O.3        1 MOL1        -0.5519
      74    H35     21.882267   24.051733   24.286892 H          1 MOL1         0.3769
      75    C22     20.726707   23.594148   21.278549 C.3        1 MOL1         0.1018
      76    H36     20.768792   24.675705   21.093961 H          1 MOL1         0.0783
      77    C23     21.254235   22.844783   20.026635 C.3        1 MOL1         0.1043
      78    H37     21.095528   21.770849   20.177388 H          1 MOL1         0.0783
      79    O19     22.674269   23.106072   19.890188 O.3        1 MOL1        -0.3740
      80    C24     20.537315   23.215173   18.702033 C.3        1 MOL1         0.0138
      81    H38     19.665644   22.558556   18.584907 H          1 MOL1         0.0794
      82    H39     21.214638   22.998119   17.865315 H          1 MOL1         0.0794
      83    O20     20.110539   24.581472   18.649522 O.3        1 MOL1        -0.5486
      84    H40     19.270857   24.639075   19.161002 H          1 MOL1         0.3769
      85    C25     24.855888   17.577704   22.069365 C.3        1 MOL1         0.2972
      86    H41     25.476170   16.726997   22.379384 H          1 MOL1         0.0751
      87    O21     23.716558   17.151242   21.291744 O.3        1 MOL1        -0.3740
      88    C26     24.365706   18.371876   23.309333 C.3        1 MOL1         0.1003
      89    H42     25.257622   18.739575   23.833362 H          1 MOL1         0.0783
      90    O22     23.590889   17.557253   24.204295 O.3        1 MOL1        -0.5519
      91    H43     23.800425   16.614415   23.998010 H          1 MOL1         0.3769
      92    C27     23.522255   19.587654   22.874016 C.3        1 MOL1         0.1053
      93    H44     22.604220   19.193818   22.428067 H          1 MOL1         0.0783
      94    O23     23.196128   20.370882   24.026055 O.3        1 MOL1        -0.5519
      95    H45     22.972086   19.706968   24.717138 H          1 MOL1         0.3769
      96    C28     24.239900   20.452873   21.807802 C.3        1 MOL1         0.1018
      97    H46     25.004121   21.063743   22.305536 H          1 MOL1         0.0783
      98    C29     24.896915   19.600124   20.684776 C.3        1 MOL1         0.1043
      99    H47     24.097695   19.209519   20.041295 H          1 MOL1         0.0783
     100    O24     25.628610   18.487506   21.258494 O.3        1 MOL1        -0.3740
     101    C30     25.859255   20.403410   19.777164 C.3        1 MOL1         0.0138
     102    H48     25.262578   21.073141   19.143301 H          1 MOL1         0.0794
     103    H49     26.378495   19.701571   19.110756 H          1 MOL1         0.0794
     104    O25     26.807613   21.167148   20.532856 O.3        1 MOL1        -0.5486
     105    H50     27.434715   21.576867   19.897480 H          1 MOL1         0.3769
     106    C31     21.450539   13.809087   20.554100 C.3        1 MOL1         0.2972
     107    H51     21.004530   12.847435   20.269627 H          1 MOL1         0.0751
     108    O26     20.436598   14.806581   20.806108 O.3        1 MOL1        -0.3740
     109    C32     22.378931   13.655081   21.787694 C.3        1 MOL1         0.1003
     110    H52     23.209644   13.005423   21.482089 H          1 MOL1         0.0783
     111    O27     21.710247   13.050394   22.904227 O.3        1 MOL1        -0.5519
     112    H53     21.025370   13.697556   23.208715 H          1 MOL1         0.3769
     113    C33     22.972932   15.024586   22.191560 C.3        1 MOL1         0.1053
     114    H54     22.150243   15.658954   22.548692 H          1 MOL1         0.0783
     115    O28     23.920331   14.820687   23.246482 O.3        1 MOL1        -0.5519
     116    H55     23.517227   14.129077   23.819533 H          1 MOL1         0.3769
     117    C34     23.641917   15.742608   20.985680 C.3        1 MOL1         0.1018
     118    H56     24.640043   15.316975   20.818190 H          1 MOL1         0.0783
     119    C35     22.821292   15.634855   19.666948 C.3        1 MOL1         0.1043
     120    H57     21.987620   16.344930   19.723309 H          1 MOL1         0.0783
     121    O29     22.285166   14.299542   19.486323 O.3        1 MOL1        -0.3740
     122    C36     23.646466   16.006206   18.411882 C.3        1 MOL1         0.0138
     123    H58     23.907709   17.071428   18.470942 H          1 MOL1         0.0794
     124    H59     23.014023   15.871631   17.524228 H          1 MOL1         0.0794
     125    O30     24.839198   15.219587   18.296555 O.3        1 MOL1        -0.5486
     126    H60     25.290899   15.482700   17.465164 H          1 MOL1         0.3769
     127    C1      19.655646   18.867947   19.434619 C.3        1 MOL1        -0.2224
     128    H1      19.125841   19.815175   19.271294 H          1 MOL1         0.1052
     129    H2      20.402760   18.755586   18.638311 H          1 MOL1         0.1052
     130    H3      18.936882   18.044880   19.335142 H          1 MOL1         0.1052
     131    C2      20.331559   18.837896   20.820327 C.3        1 MOL1        -0.1209
     132    H4      21.125597   19.593475   20.851347 H          1 MOL1         0.1041
     133    H5      20.817491   17.862935   20.964673 H          1 MOL1         0.1041
     134    C3      19.328891   19.090441   21.966951 C.3        1 MOL1        -0.1274
     135    H6      18.944045   20.115544   21.906731 H          1 MOL1         0.1041
     136    H7      18.466964   18.424988   21.850994 H          1 MOL1         0.1041
     137    C4      19.979441   18.849831   23.345812 C.3        1 MOL1         0.0313
     138    H8      20.624015   19.693977   23.605601 H          1 MOL1         0.1015
     139    H9      20.604548   17.953710   23.292472 H          1 MOL1         0.1015
     140    N1      18.998351   18.627402   24.485602 N.4        1 MOL1        -0.4809
     141    H10     19.516161   18.374692   25.340574 H          1 MOL1         0.3726
     142    H11     18.392837   17.805644   24.288266 H          1 MOL1         0.3726
     143    C5      18.144250   19.860420   24.743855 C.3        1 MOL1        -0.0677
     144    H12     17.512194   20.046711   23.873757 H          1 MOL1         0.1026
     145    H13     17.513997   19.681340   25.617603 H          1 MOL1         0.1026
     146    H14     18.793562   20.719623   24.925783 H          1 MOL1         0.1026
@<TRIPOS>BOND
    1     1     2    1
    2     1     3    1
    3     1     4    1
    4     4     5    1
    5     4     6    1
    6     6     7    1
    7     4     8    1
    8     8     9    1
    9     8    10    1
   10    10    11    1
   11     8    12    1
   12    12    13    1
   13    12    14    1
   14    14    15    1
   15     1    16    1
   16    14    16    1
   17    14    17    1
   18    17    18    1
   19    17    19    1
   20    17    20    1
   21    20    21    1
   22    22    23    1
   23    22    24    1
   24    22    25    1
   25    25    26    1
   26    25    27    1
   27    27    28    1
   28    25    29    1
   29    29    30    1
   30    29    31    1
   31    31    32    1
   32     3    33    1
   33    29    33    1
   34    33    34    1
   35    33    35    1
   36    35    36    1
   37    22    37    1
   38    35    37    1
   39    35    38    1
   40    38    39    1
   41    38    40    1
   42    38    41    1
   43    41    42    1
   44    43    44    1
   45    43    45    1
   46    43    46    1
   47    46    47    1
   48    46    48    1
   49    48    49    1
   50    46    50    1
   51    50    51    1
   52    50    52    1
   53    52    53    1
   54    24    54    1
   55    50    54    1
   56    54    55    1
   57    54    56    1
   58    56    57    1
   59    43    58    1
   60    56    58    1
   61    56    59    1
   62    59    60    1
   63    59    61    1
   64    59    62    1
   65    62    63    1
   66    64    65    1
   67    64    66    1
   68    64    67    1
   69    67    68    1
   70    67    69    1
   71    69    70    1
   72    67    71    1
   73    71    72    1
   74    71    73    1
   75    73    74    1
   76    45    75    1
   77    71    75    1
   78    75    76    1
   79    75    77    1
   80    77    78    1
   81    64    79    1
   82    77    79    1
   83    77    80    1
   84    80    81    1
   85    80    82    1
   86    80    83    1
   87    83    84    1
   88    85    86    1
   89    85    87    1
   90    85    88    1
   91    88    89    1
   92    88    90    1
   93    90    91    1
   94    88    92    1
   95    92    93    1
   96    92    94    1
   97    94    95    1
   98    66    96    1
   99    92    96    1
  100    96    97    1
  101    96    98    1
  102    98    99    1
  103    85   100    1
  104    98   100    1
  105    98   101    1
  106   101   102    1
  107   101   103    1
  108   101   104    1
  109   104   105    1
  110   106   107    1
  111    12   108    1
  112   106   108    1
  113   106   109    1
  114   109   110    1
  115   109   111    1
  116   111   112    1
  117   109   113    1
  118   113   114    1
  119   113   115    1
  120   115   116    1
  121    87   117    1
  122   113   117    1
  123   117   118    1
  124   117   119    1
  125   119   120    1
  126   106   121    1
  127   119   121    1
  128   119   122    1
  129   122   123    1
  130   122   124    1
  131   122   125    1
  132   125   126    1
  133   127   128    1
  134   127   129    1
  135   127   130    1
  136   127   131    1
  137   131   132    1
  138   131   133    1
  139   131   134    1
  140   134   135    1
  141   134   136    1
  142   134   137    1
  143   137   138    1
  144   137   139    1
  145   137   140    1
  146   140   141    1
  147   140   142    1
  148   140   143    1
  149   143   144    1
  150   143   145    1
  151   143   146    1
@<TRIPOS>SUBSTRUCTURE
       1 MOL1            1 RESIDUE      1      MOL     
       2 MOL1          146 RESIDUE      1      MOL     
@<SCITEGIC>MOL_PROPERTY
feprocess Rank
SciTegic.value.IntegerValue
3

@<SCITEGIC>MOL_PROPERTY
Conf_Id
SciTegic.value.IntegerValue
648

@<SCITEGIC>MOL_PROPERTY
Probability
SciTegic.value.DoubleValue
9.73

@<SCITEGIC>MOL_PROPERTY
G
SciTegic.value.DoubleValue
586.768

@<SCITEGIC>MOL_PROPERTY
E
SciTegic.value.DoubleValue
393.518

@<SCITEGIC>MOL_PROPERTY
-TS
SciTegic.value.DoubleValue
193.250

@<SCITEGIC>MOL_PROPERTY
U+W
SciTegic.value.DoubleValue
264.747

@<SCITEGIC>MOL_PROPERTY
U
SciTegic.value.DoubleValue
347.292

@<SCITEGIC>MOL_PROPERTY
W
SciTegic.value.DoubleValue
-82.545

@<SCITEGIC>MOL_PROPERTY
W(PB)
SciTegic.value.DoubleValue
-88.587

@<SCITEGIC>MOL_PROPERTY
W(SA)
SciTegic.value.DoubleValue
6.042

@<SCITEGIC>MOL_PROPERTY
Valence
SciTegic.value.DoubleValue
145.095

@<SCITEGIC>MOL_PROPERTY
Coulomb
SciTegic.value.DoubleValue
224.746

@<SCITEGIC>MOL_PROPERTY
VdW
SciTegic.value.DoubleValue
-22.549

@<SCITEGIC>MOL_PROPERTY
VdW6
SciTegic.value.DoubleValue
-175.227

@<SCITEGIC>MOL_PROPERTY
VdW12
SciTegic.value.DoubleValue
152.678

@<SCITEGIC>MOL_PROPERTY
Bond
SciTegic.value.DoubleValue
4.741

@<SCITEGIC>MOL_PROPERTY
Angle
SciTegic.value.DoubleValue
11.593

@<SCITEGIC>MOL_PROPERTY
Pdih
SciTegic.value.DoubleValue
128.761

@<SCITEGIC>MOL_PROPERTY
Idih
SciTegic.value.DoubleValue
0.000

@<SCITEGIC>MOL_PROPERTY
Tether
SciTegic.value.DoubleValue
0.000

@<TRIPOS>MOLECULE
CD_guest-s9_fast_vm2_rndm.mol2 : feprocess host+ligand conformer 4
         146         151           2
SMALL
USER_CHARGES
 
@<TRIPOS>ATOM
       1    C1      16.253499   15.168207   21.778181 C.3        1 MOL1         0.2972
       2    H1      15.173360   15.125024   21.969987 H          1 MOL1         0.0751
       3    O1      16.680510   16.496974   21.419099 O.3        1 MOL1        -0.3740
       4    C2      17.032090   14.736420   23.040815 C.3        1 MOL1         0.1003
       5    H2      16.767139   13.692917   23.255655 H          1 MOL1         0.0783
       6    O2      16.681646   15.563848   24.163204 O.3        1 MOL1        -0.5519
       7    H3      16.048671   16.248167   23.832956 H          1 MOL1         0.3769
       8    C3      18.552284   14.811764   22.783824 C.3        1 MOL1         0.1053
       9    H4      18.810958   15.867879   22.671110 H          1 MOL1         0.0783
      10    O3      19.249245   14.275362   23.910726 O.3        1 MOL1        -0.5519
      11    H5      18.782665   14.647725   24.692782 H          1 MOL1         0.3769
      12    C4      18.979629   14.090190   21.480075 C.3        1 MOL1         0.1018
      13    H6      19.084192   13.016510   21.685322 H          1 MOL1         0.0783
      14    C5      18.006861   14.328054   20.286763 C.3        1 MOL1         0.1043
      15    H7      18.213693   15.329454   19.890142 H          1 MOL1         0.0783
      16    O4      16.618996   14.275634   20.706371 O.3        1 MOL1        -0.3740
      17    C6      18.208747   13.332665   19.119839 C.3        1 MOL1         0.0138
      18    H8      19.170656   13.552170   18.636923 H          1 MOL1         0.0794
      19    H9      17.422184   13.503374   18.372441 H          1 MOL1         0.0794
      20    O5      18.187662   11.970618   19.563866 O.3        1 MOL1        -0.5486
      21    H10     18.244009   11.396708   18.768657 H          1 MOL1         0.3769
      22    C7      15.024011   20.217351   20.525081 C.3        1 MOL1         0.2972
      23    H11     14.382080   21.028571   20.158171 H          1 MOL1         0.0751
      24    O6      16.309795   20.713600   20.952874 O.3        1 MOL1        -0.3740
      25    C8      14.350576   19.456460   21.702239 C.3        1 MOL1         0.1003
      26    H12     13.417409   19.026786   21.315243 H          1 MOL1         0.0783
      27    O7      14.036594   20.328151   22.798476 O.3        1 MOL1        -0.5519
      28    H13     14.887712   20.728570   23.108926 H          1 MOL1         0.3769
      29    C9      15.248311   18.288206   22.178916 C.3        1 MOL1         0.1053
      30    H14     16.166407   18.713463   22.603887 H          1 MOL1         0.0783
      31    O8      14.562656   17.524733   23.177107 O.3        1 MOL1        -0.5519
      32    H15     14.128024   18.191480   23.755371 H          1 MOL1         0.3769
      33    C10     15.637084   17.382961   20.983867 C.3        1 MOL1         0.1018
      34    H16     14.746165   16.833355   20.652047 H          1 MOL1         0.0783
      35    C11     16.197207   18.200102   19.789910 C.3        1 MOL1         0.1043
      36    H17     17.155406   18.641573   20.091024 H          1 MOL1         0.0783
      37    O9      15.261747   19.258777   19.468326 O.3        1 MOL1        -0.3740
      38    C12     16.473705   17.359526   18.515493 C.3        1 MOL1         0.0138
      39    H18     17.505198   16.988246   18.564241 H          1 MOL1         0.0794
      40    H19     16.416364   18.020057   17.640038 H          1 MOL1         0.0794
      41    O10     15.575540   16.253148   18.358465 O.3        1 MOL1        -0.5486
      42    H20     15.779626   15.605185   19.071202 H          1 MOL1         0.3769
      43    C13     18.487727   24.087116   21.815615 C.3        1 MOL1         0.2972
      44    H21     18.884114   25.079912   22.064762 H          1 MOL1         0.0751
      45    O11     19.528417   23.183170   21.390963 O.3        1 MOL1        -0.3740
      46    C14     17.760757   23.477508   23.039259 C.3        1 MOL1         0.1003
      47    H22     16.906284   24.127248   23.269745 H          1 MOL1         0.0783
      48    O12     18.620166   23.403827   24.187653 O.3        1 MOL1        -0.5519
      49    H23     19.518127   23.706079   23.903680 H          1 MOL1         0.3769
      50    C15     17.218834   22.073788   22.696797 C.3        1 MOL1         0.1053
      51    H24     18.082785   21.418205   22.537503 H          1 MOL1         0.0783
      52    O13     16.445688   21.591113   23.798670 O.3        1 MOL1        -0.5519
      53    H25     16.925717   21.916126   24.592624 H          1 MOL1         0.3769
      54    C16     16.366310   22.082006   21.402501 C.3        1 MOL1         0.1018
      55    H26     15.371125   22.479102   21.643008 H          1 MOL1         0.0783
      56    C17     17.009652   22.912689   20.252209 C.3        1 MOL1         0.1043
      57    H27     17.843651   22.328876   19.841980 H          1 MOL1         0.0783
      58    O14     17.521818   24.177308   20.748067 O.3        1 MOL1        -0.3740
      59    C18     16.041489   23.201941   19.080217 C.3        1 MOL1         0.0138
      60    H28     15.863323   22.264817   18.535666 H          1 MOL1         0.0794
      61    H29     16.532287   23.894980   18.383749 H          1 MOL1         0.0794
      62    O15     14.794866   23.747088   19.529807 O.3        1 MOL1        -0.5486
      63    H30     14.268878   23.983963   18.734806 H          1 MOL1         0.3769
      64    C19     23.607999   22.831288   20.914152 C.3        1 MOL1         0.2972
      65    H31     24.678676   22.941920   20.699321 H          1 MOL1         0.0751
      66    O16     23.252468   21.447843   21.129259 O.3        1 MOL1        -0.3740
      67    C20     23.187738   23.684969   22.141395 C.3        1 MOL1         0.1003
      68    H32     23.354743   24.736133   21.872104 H          1 MOL1         0.0783
      69    O17     23.965374   23.381036   23.308358 O.3        1 MOL1        -0.5519
      70    H33     23.755145   22.446093   23.557661 H          1 MOL1         0.3769
      71    C21     21.678635   23.504151   22.432424 C.3        1 MOL1         0.1053
      72    H34     21.514021   22.465713   22.750576 H          1 MOL1         0.0783
      73    O18     21.288582   24.397826   23.479499 O.3        1 MOL1        -0.5519
      74    H35     22.020375   24.357845   24.136114 H          1 MOL1         0.3769
      75    C22     20.824959   23.765205   21.163777 C.3        1 MOL1         0.1018
      76    H36     20.764178   24.847575   20.993092 H          1 MOL1         0.0783
      77    C23     21.399189   23.082607   19.890208 C.3        1 MOL1         0.1043
      78    H37     21.216068   22.004533   19.965738 H          1 MOL1         0.0783
      79    O19     22.827791   23.309849   19.797202 O.3        1 MOL1        -0.3740
      80    C24     20.728547   23.551821   18.575046 C.3        1 MOL1         0.0138
      81    H38     19.724865   23.110288   18.517384 H          1 MOL1         0.0794
      82    H39     21.305554   23.153104   17.730124 H          1 MOL1         0.0794
      83    O20     20.633433   24.977873   18.474832 O.3        1 MOL1        -0.5486
      84    H40     19.883182   25.263727   19.039478 H          1 MOL1         0.3769
      85    C25     24.680853   17.702676   22.119273 C.3        1 MOL1         0.2972
      86    H41     25.266113   16.834711   22.448368 H          1 MOL1         0.0751
      87    O21     23.474441   17.304759   21.436852 O.3        1 MOL1        -0.3740
      88    C26     24.294311   18.580073   23.335409 C.3        1 MOL1         0.1003
      89    H42     25.227901   18.909943   23.809699 H          1 MOL1         0.0783
      90    O22     23.506297   17.846177   24.288687 O.3        1 MOL1        -0.5519
      91    H43     23.666026   16.886298   24.118328 H          1 MOL1         0.3769
      92    C27     23.511720   19.828328   22.875683 C.3        1 MOL1         0.1053
      93    H44     22.552367   19.482211   22.475381 H          1 MOL1         0.0783
      94    O23     23.289074   20.672148   24.009007 O.3        1 MOL1        -0.5519
      95    H45     23.132050   20.045672   24.750421 H          1 MOL1         0.3769
      96    C28     24.241094   20.598660   21.746974 C.3        1 MOL1         0.1018
      97    H46     25.068270   21.172966   22.184647 H          1 MOL1         0.0783
      98    C29     24.777491   19.652975   20.634661 C.3        1 MOL1         0.1043
      99    H47     23.918791   19.292766   20.053346 H          1 MOL1         0.0783
     100    O24     25.461353   18.515069   21.217580 O.3        1 MOL1        -0.3740
     101    C30     25.740075   20.350306   19.643753 C.3        1 MOL1         0.0138
     102    H48     25.156931   21.041531   19.020308 H          1 MOL1         0.0794
     103    H49     26.166793   19.589933   18.975971 H          1 MOL1         0.0794
     104    O25     26.783914   21.066182   20.315909 O.3        1 MOL1        -0.5486
     105    H50     27.397292   21.411672   19.630929 H          1 MOL1         0.3769
     106    C31     21.312930   13.825427   20.734435 C.3        1 MOL1         0.2972
     107    H51     20.953558   12.833539   20.431112 H          1 MOL1         0.0751
     108    O26     20.226512   14.700607   21.095796 O.3        1 MOL1        -0.3740
     109    C32     22.297381   13.732261   21.929795 C.3        1 MOL1         0.1003
     110    H52     23.171541   13.165190   21.583886 H          1 MOL1         0.0783
     111    O27     21.717866   13.046434   23.049615 O.3        1 MOL1        -0.5519
     112    H53     20.889507   13.529376   23.298112 H          1 MOL1         0.3769
     113    C33     22.781721   15.145267   22.341938 C.3        1 MOL1         0.1053
     114    H54     21.917878   15.709201   22.719755 H          1 MOL1         0.0783
     115    O28     23.762338   15.016673   23.377523 O.3        1 MOL1        -0.5519
     116    H55     23.426322   14.294001   23.955476 H          1 MOL1         0.3769
     117    C34     23.364293   15.904931   21.116251 C.3        1 MOL1         0.1018
     118    H56     24.342042   15.475434   20.863031 H          1 MOL1         0.0783
     119    C35     22.436934   15.821680   19.872210 C.3        1 MOL1         0.1043
     120    H57     21.546685   16.433592   20.066257 H          1 MOL1         0.0783
     121    O29     22.029788   14.448990   19.646889 O.3        1 MOL1        -0.3740
     122    C36     23.081925   16.373277   18.576131 C.3        1 MOL1         0.0138
     123    H58     23.095316   17.469814   18.632926 H          1 MOL1         0.0794
     124    H59     22.442034   16.102072   17.725975 H          1 MOL1         0.0794
     125    O30     24.412856   15.886326   18.365202 O.3        1 MOL1        -0.5486
     126    H60     24.998022   16.341119   19.008863 H          1 MOL1         0.3769
     127    C1      19.996057   19.664855   21.044728 C.3        1 MOL1        -0.2224
     128    H1      20.652020   20.383727   21.549468 H          1 MOL1         0.1052
     129    H2      20.449046   19.422983   20.074914 H          1 MOL1         0.1052
     130    H3      19.037396   20.161155   20.850894 H          1 MOL1         0.1052
     131    C2      19.799218   18.384764   21.886567 C.3        1 MOL1        -0.1209
     132    H4      20.750513   17.839786   21.961846 H          1 MOL1         0.1041
     133    H5      19.104968   17.717941   21.358509 H          1 MOL1         0.1041
     134    C3      19.259103   18.671074   23.307950 C.3        1 MOL1        -0.1274
     135    H6      18.324025   19.240004   23.245430 H          1 MOL1         0.1041
     136    H7      19.011985   17.723034   23.800783 H          1 MOL1         0.1041
     137    C4      20.284200   19.424070   24.179871 C.3        1 MOL1         0.0313
     138    H8      20.432621   20.437418   23.797485 H          1 MOL1         0.1015
     139    H9      21.240571   18.897200   24.126888 H          1 MOL1         0.1015
     140    N1      19.917336   19.522093   25.650069 N.4        1 MOL1        -0.4809
     141    H10     20.714871   19.904985   26.180001 H          1 MOL1         0.3726
     142    H11     19.761980   18.581043   26.040888 H          1 MOL1         0.3726
     143    C5      18.692238   20.402567   25.855120 C.3        1 MOL1        -0.0677
     144    H12     17.842001   19.968886   25.324342 H          1 MOL1         0.1026
     145    H13     18.468445   20.462604   26.922316 H          1 MOL1         0.1026
     146    H14     18.903448   21.401056   25.466858 H          1 MOL1         0.1026
@<TRIPOS>BOND
    1     1     2    1
    2     1     3    1
    3     1     4    1
    4     4     5    1
    5     4     6    1
    6     6     7    1
    7     4     8    1
    8     8     9    1
    9     8    10    1
   10    10    11    1
   11     8    12    1
   12    12    13    1
   13    12    14    1
   14    14    15    1
   15     1    16    1
   16    14    16    1
   17    14    17    1
   18    17    18    1
   19    17    19    1
   20    17    20    1
   21    20    21    1
   22    22    23    1
   23    22    24    1
   24    22    25    1
   25    25    26    1
   26    25    27    1
   27    27    28    1
   28    25    29    1
   29    29    30    1
   30    29    31    1
   31    31    32    1
   32     3    33    1
   33    29    33    1
   34    33    34    1
   35    33    35    1
   36    35    36    1
   37    22    37    1
   38    35    37    1
   39    35    38    1
   40    38    39    1
   41    38    40    1
   42    38    41    1
   43    41    42    1
   44    43    44    1
   45    43    45    1
   46    43    46    1
   47    46    47    1
   48    46    48    1
   49    48    49    1
   50    46    50    1
   51    50    51    1
   52    50    52    1
   53    52    53    1
   54    24    54    1
   55    50    54    1
   56    54    55    1
   57    54    56    1
   58    56    57    1
   59    43    58    1
   60    56    58    1
   61    56    59    1
   62    59    60    1
   63    59    61    1
   64    59    62    1
   65    62    63    1
   66    64    65    1
   67    64    66    1
   68    64    67    1
   69    67    68    1
   70    67    69    1
   71    69    70    1
   72    67    71    1
   73    71    72    1
   74    71    73    1
   75    73    74    1
   76    45    75    1
   77    71    75    1
   78    75    76    1
   79    75    77    1
   80    77    78    1
   81    64    79    1
   82    77    79    1
   83    77    80    1
   84    80    81    1
   85    80    82    1
   86    80    83    1
   87    83    84    1
   88    85    86    1
   89    85    87    1
   90    85    88    1
   91    88    89    1
   92    88    90    1
   93    90    91    1
   94    88    92    1
   95    92    93    1
   96    92    94    1
   97    94    95    1
   98    66    96    1
   99    92    96    1
  100    96    97    1
  101    96    98    1
  102    98    99    1
  103    85   100    1
  104    98   100    1
  105    98   101    1
  106   101   102    1
  107   101   103    1
  108   101   104    1
  109   104   105    1
  110   106   107    1
  111    12   108    1
  112   106   108    1
  113   106   109    1
  114   109   110    1
  115   109   111    1
  116   111   112    1
  117   109   113    1
  118   113   114    1
  119   113   115    1
  120   115   116    1
  121    87   117    1
  122   113   117    1
  123   117   118    1
  124   117   119    1
  125   119   120    1
  126   106   121    1
  127   119   121    1
  128   119   122    1
  129   122   123    1
  130   122   124    1
  131   122   125    1
  132   125   126    1
  133   127   128    1
  134   127   129    1
  135   127   130    1
  136   127   131    1
  137   131   132    1
  138   131   133    1
  139   131   134    1
  140   134   135    1
  141   134   136    1
  142   134   137    1
  143   137   138    1
  144   137   139    1
  145   137   140    1
  146   140   141    1
  147   140   142    1
  148   140   143    1
  149   143   144    1
  150   143   145    1
  151   143   146    1
@<TRIPOS>SUBSTRUCTURE
       1 MOL1            1 RESIDUE      1      MOL     
       2 MOL1          146 RESIDUE      1      MOL     
@<SCITEGIC>MOL_PROPERTY
feprocess Rank
SciTegic.value.IntegerValue
4

@<SCITEGIC>MOL_PROPERTY
Conf_Id
SciTegic.value.IntegerValue
292

@<SCITEGIC>MOL_PROPERTY
Probability
SciTegic.value.DoubleValue
6.65

@<SCITEGIC>MOL_PROPERTY
G
SciTegic.value.DoubleValue
586.996

@<SCITEGIC>MOL_PROPERTY
E
SciTegic.value.DoubleValue
395.293

@<SCITEGIC>MOL_PROPERTY
-TS
SciTegic.value.DoubleValue
191.702

@<SCITEGIC>MOL_PROPERTY
U+W
SciTegic.value.DoubleValue
266.522

@<SCITEGIC>MOL_PROPERTY
U
SciTegic.value.DoubleValue
353.766

@<SCITEGIC>MOL_PROPERTY
W
SciTegic.value.DoubleValue
-87.244

@<SCITEGIC>MOL_PROPERTY
W(PB)
SciTegic.value.DoubleValue
-93.350

@<SCITEGIC>MOL_PROPERTY
W(SA)
SciTegic.value.DoubleValue
6.106

@<SCITEGIC>MOL_PROPERTY
Valence
SciTegic.value.DoubleValue
146.685

@<SCITEGIC>MOL_PROPERTY
Coulomb
SciTegic.value.DoubleValue
229.691

@<SCITEGIC>MOL_PROPERTY
VdW
SciTegic.value.DoubleValue
-22.610

@<SCITEGIC>MOL_PROPERTY
VdW6
SciTegic.value.DoubleValue
-173.437

@<SCITEGIC>MOL_PROPERTY
VdW12
SciTegic.value.DoubleValue
150.828

@<SCITEGIC>MOL_PROPERTY
Bond
SciTegic.value.DoubleValue
4.654

@<SCITEGIC>MOL_PROPERTY
Angle
SciTegic.value.DoubleValue
12.150

@<SCITEGIC>MOL_PROPERTY
Pdih
SciTegic.value.DoubleValue
129.880

@<SCITEGIC>MOL_PROPERTY
Idih
SciTegic.value.DoubleValue
0.000

@<SCITEGIC>MOL_PROPERTY
Tether
SciTegic.value.DoubleValue
0.000

@<TRIPOS>MOLECULE
CD_guest-s9_fast_vm2_rndm.mol2 : feprocess host+ligand conformer 5
         146         151           2
SMALL
USER_CHARGES
 
@<TRIPOS>ATOM
       1    C1      16.379375   15.305784   20.539964 C.3        1 MOL1         0.2972
       2    H1      15.356903   15.126969   20.183370 H          1 MOL1         0.0751
       3    O1      16.601693   16.708728   20.802171 O.3        1 MOL1        -0.3740
       4    C2      16.685727   14.459327   21.811151 C.3        1 MOL1         0.1003
       5    H2      16.580594   13.405365   21.522455 H          1 MOL1         0.0783
       6    O2      15.775263   14.730258   22.886696 O.3        1 MOL1        -0.5519
       7    H3      15.934156   15.666663   23.166541 H          1 MOL1         0.3769
       8    C3      18.145535   14.675841   22.277351 C.3        1 MOL1         0.1053
       9    H4      18.250422   15.718238   22.603029 H          1 MOL1         0.0783
      10    O3      18.439181   13.795218   23.366936 O.3        1 MOL1        -0.5519
      11    H5      17.635779   13.812889   23.934303 H          1 MOL1         0.3769
      12    C4      19.130003   14.429214   21.108861 C.3        1 MOL1         0.1018
      13    H6      19.149424   13.354873   20.882583 H          1 MOL1         0.0783
      14    C5      18.720405   15.205248   19.830054 C.3        1 MOL1         0.1043
      15    H7      18.829302   16.278216   20.029698 H          1 MOL1         0.0783
      16    O4      17.333302   14.910591   19.525758 O.3        1 MOL1        -0.3740
      17    C6      19.596502   14.893117   18.588330 C.3        1 MOL1         0.0138
      18    H8      20.447627   15.586086   18.584173 H          1 MOL1         0.0794
      19    H9      19.010853   15.103752   17.683547 H          1 MOL1         0.0794
      20    O5      20.081972   13.544701   18.560128 O.3        1 MOL1        -0.5486
      21    H10     20.760012   13.463398   19.269320 H          1 MOL1         0.3769
      22    C7      14.821015   20.322015   21.714930 C.3        1 MOL1         0.2972
      23    H11     14.161827   21.148335   22.010529 H          1 MOL1         0.0751
      24    O6      16.022417   20.801084   21.074080 O.3        1 MOL1        -0.3740
      25    C8      15.194777   19.454997   22.946754 C.3        1 MOL1         0.1003
      26    H12     14.260573   19.037389   23.344634 H          1 MOL1         0.0783
      27    O7      15.850513   20.209900   23.978469 O.3        1 MOL1        -0.5519
      28    H13     15.693621   21.166275   23.788657 H          1 MOL1         0.3769
      29    C9      16.105066   18.285780   22.523897 C.3        1 MOL1         0.1053
      30    H14     17.046641   18.722012   22.172900 H          1 MOL1         0.0783
      31    O8      16.344117   17.453928   23.663314 O.3        1 MOL1        -0.5519
      32    H15     16.442710   18.092789   24.405534 H          1 MOL1         0.3769
      33    C10     15.505367   17.466688   21.356127 C.3        1 MOL1         0.1018
      34    H16     14.707052   16.822398   21.746522 H          1 MOL1         0.0783
      35    C11     14.945719   18.374600   20.222608 C.3        1 MOL1         0.1043
      36    H17     15.797908   18.804471   19.680019 H          1 MOL1         0.0783
      37    O9      14.147325   19.453261   20.778410 O.3        1 MOL1        -0.3740
      38    C12     14.086493   17.610091   19.187313 C.3        1 MOL1         0.0138
      39    H18     14.750083   16.973882   18.586244 H          1 MOL1         0.0794
      40    H19     13.628747   18.339386   18.505539 H          1 MOL1         0.0794
      41    O10     13.075938   16.806476   19.809073 O.3        1 MOL1        -0.5486
      42    H20     12.521795   16.419824   19.096153 H          1 MOL1         0.3769
      43    C13     18.397119   24.136300   20.756851 C.3        1 MOL1         0.2972
      44    H21     18.871970   25.109519   20.578226 H          1 MOL1         0.0751
      45    O11     19.381097   23.102003   20.981129 O.3        1 MOL1        -0.3740
      46    C14     17.412989   24.204885   21.953501 C.3        1 MOL1         0.1003
      47    H22     16.619403   24.909624   21.672333 H          1 MOL1         0.0783
      48    O12     18.044810   24.678202   23.152083 O.3        1 MOL1        -0.5519
      49    H23     18.714078   23.995467   23.411009 H          1 MOL1         0.3769
      50    C15     16.756023   22.826364   22.201321 C.3        1 MOL1         0.1053
      51    H24     17.534322   22.139171   22.561690 H          1 MOL1         0.0783
      52    O13     15.740499   22.983054   23.198657 O.3        1 MOL1        -0.5519
      53    H25     16.125660   23.604830   23.857783 H          1 MOL1         0.3769
      54    C16     16.146929   22.228224   20.901962 C.3        1 MOL1         0.1018
      55    H26     15.172083   22.696410   20.716745 H          1 MOL1         0.0783
      56    C17     17.048638   22.421484   19.648528 C.3        1 MOL1         0.1043
      57    H27     17.869490   21.698470   19.705890 H          1 MOL1         0.0783
      58    O14     17.609067   23.756718   19.610072 O.3        1 MOL1        -0.3740
      59    C18     16.315797   22.149477   18.311691 C.3        1 MOL1         0.0138
      60    H28     16.100710   21.074544   18.242269 H          1 MOL1         0.0794
      61    H29     16.997123   22.397245   17.486964 H          1 MOL1         0.0794
      62    O15     15.099892   22.897120   18.182947 O.3        1 MOL1        -0.5486
      63    H30     14.423448   22.465820   18.747643 H          1 MOL1         0.3769
      64    C19     23.327084   22.462025   22.108590 C.3        1 MOL1         0.2972
      65    H31     24.352541   22.559354   22.486630 H          1 MOL1         0.0751
      66    O16     23.143933   21.230008   21.382042 O.3        1 MOL1        -0.3740
      67    C20     22.313376   22.510975   23.281526 C.3        1 MOL1         0.1003
      68    H32     22.452768   23.475140   23.787761 H          1 MOL1         0.0783
      69    O17     22.537431   21.446680   24.221252 O.3        1 MOL1        -0.5519
      70    H33     23.485167   21.182155   24.137002 H          1 MOL1         0.3769
      71    C21     20.860559   22.445192   22.758484 C.3        1 MOL1         0.1053
      72    H34     20.705376   21.452562   22.322847 H          1 MOL1         0.0783
      73    O18     19.965416   22.632045   23.858430 O.3        1 MOL1        -0.5519
      74    H35     20.357300   22.097669   24.585073 H          1 MOL1         0.3769
      75    C22     20.597670   23.495398   21.650474 C.3        1 MOL1         0.1018
      76    H36     20.512069   24.485904   22.116530 H          1 MOL1         0.0783
      77    C23     21.723895   23.513780   20.578600 C.3        1 MOL1         0.1043
      78    H37     21.644356   22.594042   19.984373 H          1 MOL1         0.0783
      79    O19     23.025040   23.555135   21.216511 O.3        1 MOL1        -0.3740
      80    C24     21.623418   24.705604   19.596393 C.3        1 MOL1         0.0138
      81    H38     20.761872   24.540434   18.935338 H          1 MOL1         0.0794
      82    H39     22.521734   24.715295   18.964632 H          1 MOL1         0.0794
      83    O20     21.479403   25.958357   20.277599 O.3        1 MOL1        -0.5486
      84    H40     21.508320   26.670246   19.601488 H          1 MOL1         0.3769
      85    C25     25.094294   17.596581   20.899074 C.3        1 MOL1         0.2972
      86    H41     25.778346   16.772370   20.658757 H          1 MOL1         0.0751
      87    O21     23.767897   17.118096   21.204214 O.3        1 MOL1        -0.3740
      88    C26     25.616241   18.436001   22.093777 C.3        1 MOL1         0.1003
      89    H42     26.562645   18.893015   21.776113 H          1 MOL1         0.0783
      90    O22     25.864515   17.626842   23.252665 O.3        1 MOL1        -0.5519
      91    H43     25.014541   17.175311   23.486692 H          1 MOL1         0.3769
      92    C27     24.625433   19.580482   22.422931 C.3        1 MOL1         0.1053
      93    H44     23.684319   19.131747   22.769129 H          1 MOL1         0.0783
      94    O23     25.187006   20.387686   23.463964 O.3        1 MOL1        -0.5519
      95    H45     25.621376   19.747473   24.073034 H          1 MOL1         0.3769
      96    C28     24.325170   20.433630   21.156111 C.3        1 MOL1         0.1018
      97    H46     25.194807   21.067082   20.939906 H          1 MOL1         0.0783
      98    C29     24.012192   19.557502   19.909422 C.3        1 MOL1         0.1043
      99    H47     23.020800   19.108353   20.044983 H          1 MOL1         0.0783
     100    O24     24.991029   18.497428   19.775754 O.3        1 MOL1        -0.3740
     101    C30     23.958536   20.358971   18.585123 C.3        1 MOL1         0.0138
     102    H48     23.040133   20.961213   18.578260 H          1 MOL1         0.0794
     103    H49     23.885390   19.648253   17.751279 H          1 MOL1         0.0794
     104    O25     25.095992   21.211555   18.405326 O.3        1 MOL1        -0.5486
     105    H50     24.992639   21.974232   19.014206 H          1 MOL1         0.3769
     106    C31     21.359430   13.912708   21.942523 C.3        1 MOL1         0.2972
     107    H51     20.864696   12.956741   22.158328 H          1 MOL1         0.0751
     108    O26     20.421173   14.917423   21.507413 O.3        1 MOL1        -0.3740
     109    C32     22.079238   14.434423   23.206885 C.3        1 MOL1         0.1003
     110    H52     22.861987   13.710848   23.469512 H          1 MOL1         0.0783
     111    O27     21.161794   14.570066   24.304880 O.3        1 MOL1        -0.5519
     112    H53     20.258000   14.371187   23.954785 H          1 MOL1         0.3769
     113    C33     22.748275   15.791845   22.910481 C.3        1 MOL1         0.1053
     114    H54     21.946007   16.508042   22.720571 H          1 MOL1         0.0783
     115    O28     23.493308   16.210031   24.056227 O.3        1 MOL1        -0.5519
     116    H55     22.924446   15.969765   24.822472 H          1 MOL1         0.3769
     117    C34     23.644490   15.751120   21.646279 C.3        1 MOL1         0.1018
     118    H56     24.613621   15.309142   21.913269 H          1 MOL1         0.0783
     119    C35     22.998849   14.973936   20.459853 C.3        1 MOL1         0.1043
     120    H57     22.240147   15.627517   20.011487 H          1 MOL1         0.0783
     121    O29     22.351628   13.754019   20.907745 O.3        1 MOL1        -0.3740
     122    C36     24.004184   14.616995   19.339512 C.3        1 MOL1         0.0138
     123    H58     24.300599   15.543509   18.829214 H          1 MOL1         0.0794
     124    H59     23.495226   13.985100   18.599210 H          1 MOL1         0.0794
     125    O30     25.165536   13.950786   19.849823 O.3        1 MOL1        -0.5486
     126    H60     25.719841   13.688003   19.082661 H          1 MOL1         0.3769
     127    C1      19.611540   19.249409   20.410708 C.3        1 MOL1        -0.2224
     128    H1      20.168618   19.231403   19.465422 H          1 MOL1         0.1052
     129    H2      18.707607   18.639167   20.286888 H          1 MOL1         0.1052
     130    H3      19.300522   20.283692   20.598478 H          1 MOL1         0.1052
     131    C2      20.484553   18.732032   21.571855 C.3        1 MOL1        -0.1209
     132    H4      21.368501   19.371919   21.675762 H          1 MOL1         0.1041
     133    H5      20.850394   17.726945   21.327687 H          1 MOL1         0.1041
     134    C3      19.703528   18.703935   22.903154 C.3        1 MOL1        -0.1274
     135    H6      19.106720   19.620784   23.005652 H          1 MOL1         0.1041
     136    H7      19.002443   17.862658   22.881627 H          1 MOL1         0.1041
     137    C4      20.626005   18.581951   24.131544 C.3        1 MOL1         0.0313
     138    H8      21.275581   19.459337   24.176690 H          1 MOL1         0.1015
     139    H9      21.257694   17.696580   24.051908 H          1 MOL1         0.1015
     140    N1      19.881598   18.493429   25.451076 N.4        1 MOL1        -0.4809
     141    H10     19.186300   19.251615   25.520626 H          1 MOL1         0.3726
     142    H11     20.539087   18.655185   26.229131 H          1 MOL1         0.3726
     143    C5      19.220154   17.127808   25.607527 C.3        1 MOL1        -0.0677
     144    H12     19.987807   16.351546   25.570205 H          1 MOL1         0.1026
     145    H13     18.703415   17.087723   26.568695 H          1 MOL1         0.1026
     146    H14     18.503104   16.973864   24.798878 H          1 MOL1         0.1026
@<TRIPOS>BOND
    1     1     2    1
    2     1     3    1
    3     1     4    1
    4     4     5    1
    5     4     6    1
    6     6     7    1
    7     4     8    1
    8     8     9    1
    9     8    10    1
   10    10    11    1
   11     8    12    1
   12    12    13    1
   13    12    14    1
   14    14    15    1
   15     1    16    1
   16    14    16    1
   17    14    17    1
   18    17    18    1
   19    17    19    1
   20    17    20    1
   21    20    21    1
   22    22    23    1
   23    22    24    1
   24    22    25    1
   25    25    26    1
   26    25    27    1
   27    27    28    1
   28    25    29    1
   29    29    30    1
   30    29    31    1
   31    31    32    1
   32     3    33    1
   33    29    33    1
   34    33    34    1
   35    33    35    1
   36    35    36    1
   37    22    37    1
   38    35    37    1
   39    35    38    1
   40    38    39    1
   41    38    40    1
   42    38    41    1
   43    41    42    1
   44    43    44    1
   45    43    45    1
   46    43    46    1
   47    46    47    1
   48    46    48    1
   49    48    49    1
   50    46    50    1
   51    50    51    1
   52    50    52    1
   53    52    53    1
   54    24    54    1
   55    50    54    1
   56    54    55    1
   57    54    56    1
   58    56    57    1
   59    43    58    1
   60    56    58    1
   61    56    59    1
   62    59    60    1
   63    59    61    1
   64    59    62    1
   65    62    63    1
   66    64    65    1
   67    64    66    1
   68    64    67    1
   69    67    68    1
   70    67    69    1
   71    69    70    1
   72    67    71    1
   73    71    72    1
   74    71    73    1
   75    73    74    1
   76    45    75    1
   77    71    75    1
   78    75    76    1
   79    75    77    1
   80    77    78    1
   81    64    79    1
   82    77    79    1
   83    77    80    1
   84    80    81    1
   85    80    82    1
   86    80    83    1
   87    83    84    1
   88    85    86    1
   89    85    87    1
   90    85    88    1
   91    88    89    1
   92    88    90    1
   93    90    91    1
   94    88    92    1
   95    92    93    1
   96    92    94    1
   97    94    95    1
   98    66    96    1
   99    92    96    1
  100    96    97    1
  101    96    98    1
  102    98    99    1
  103    85   100    1
  104    98   100    1
  105    98   101    1
  106   101   102    1
  107   101   103    1
  108   101   104    1
  109   104   105    1
  110   106   107    1
  111    12   108    1
  112   106   108    1
  113   106   109    1
  114   109   110    1
  115   109   111    1
  116   111   112    1
  117   109   113    1
  118   113   114    1
  119   113   115    1
  120   115   116    1
  121    87   117    1
  122   113   117    1
  123   117   118    1
  124   117   119    1
  125   119   120    1
  126   106   121    1
  127   119   121    1
  128   119   122    1
  129   122   123    1
  130   122   124    1
  131   122   125    1
  132   125   126    1
  133   127   128    1
  134   127   129    1
  135   127   130    1
  136   127   131    1
  137   131   132    1
  138   131   133    1
  139   131   134    1
  140   134   135    1
  141   134   136    1
  142   134   137    1
  143   137   138    1
  144   137   139    1
  145   137   140    1
  146   140   141    1
  147   140   142    1
  148   140   143    1
  149   143   144    1
  150   143   145    1
  151   143   146    1
@<TRIPOS>SUBSTRUCTURE
       1 MOL1            1 RESIDUE      1      MOL     
       2 MOL1          146 RESIDUE      1      MOL     
@<SCITEGIC>MOL_PROPERTY
feprocess Rank
SciTegic.value.IntegerValue
5

@<SCITEGIC>MOL_PROPERTY
Conf_Id
SciTegic.value.IntegerValue
212

@<SCITEGIC>MOL_PROPERTY
Probability
SciTegic.value.DoubleValue
2.88

@<SCITEGIC>MOL_PROPERTY
G
SciTegic.value.DoubleValue
587.493

@<SCITEGIC>MOL_PROPERTY
E
SciTegic.value.DoubleValue
395.341

@<SCITEGIC>MOL_PROPERTY
-TS
SciTegic.value.DoubleValue
192.152

@<SCITEGIC>MOL_PROPERTY
U+W
SciTegic.value.DoubleValue
266.570

@<SCITEGIC>MOL_PROPERTY
U
SciTegic.value.DoubleValue
352.436

@<SCITEGIC>MOL_PROPERTY
W
SciTegic.value.DoubleValue
-85.866

@<SCITEGIC>MOL_PROPERTY
W(PB)
SciTegic.value.DoubleValue
-91.983

@<SCITEGIC>MOL_PROPERTY
W(SA)
SciTegic.value.DoubleValue
6.117

@<SCITEGIC>MOL_PROPERTY
Valence
SciTegic.value.DoubleValue
146.381

@<SCITEGIC>MOL_PROPERTY
Coulomb
SciTegic.value.DoubleValue
227.894

@<SCITEGIC>MOL_PROPERTY
VdW
SciTegic.value.DoubleValue
-21.839

@<SCITEGIC>MOL_PROPERTY
VdW6
SciTegic.value.DoubleValue
-174.098

@<SCITEGIC>MOL_PROPERTY
VdW12
SciTegic.value.DoubleValue
152.259

@<SCITEGIC>MOL_PROPERTY
Bond
SciTegic.value.DoubleValue
4.842

@<SCITEGIC>MOL_PROPERTY
Angle
SciTegic.value.DoubleValue
12.728

@<SCITEGIC>MOL_PROPERTY
Pdih
SciTegic.value.DoubleValue
128.811

@<SCITEGIC>MOL_PROPERTY
Idih
SciTegic.value.DoubleValue
0.000

@<SCITEGIC>MOL_PROPERTY
Tether
SciTegic.value.DoubleValue
0.000

@<TRIPOS>MOLECULE
CD_guest-s9_fast_vm2_rndm.mol2 : feprocess host+ligand conformer 6
         146         151           2
SMALL
USER_CHARGES
 
@<TRIPOS>ATOM
       1    C1      16.340805   15.218172   21.817111 C.3        1 MOL1         0.2972
       2    H1      15.270297   15.201507   22.059125 H          1 MOL1         0.0751
       3    O1      16.750687   16.501777   21.305198 O.3        1 MOL1        -0.3740
       4    C2      17.173933   14.905083   23.081089 C.3        1 MOL1         0.1003
       5    H2      16.878846   13.906578   23.429399 H          1 MOL1         0.0783
       6    O2      16.922483   15.874044   24.114224 O.3        1 MOL1        -0.5519
       7    H3      16.026469   16.256271   23.939760 H          1 MOL1         0.3769
       8    C3      18.682980   14.887395   22.755471 C.3        1 MOL1         0.1053
       9    H4      18.982247   15.919754   22.558072 H          1 MOL1         0.0783
      10    O3      19.397359   14.406563   23.896230 O.3        1 MOL1        -0.5519
      11    H5      18.948059   14.815884   24.668721 H          1 MOL1         0.3769
      12    C4      19.038929   14.060906   21.492344 C.3        1 MOL1         0.1018
      13    H6      19.149042   13.005030   21.772827 H          1 MOL1         0.0783
      14    C5      18.010267   14.214616   20.333239 C.3        1 MOL1         0.1043
      15    H7      18.203799   15.176347   19.841396 H          1 MOL1         0.0783
      16    O4      16.648028   14.216018   20.827751 O.3        1 MOL1        -0.3740
      17    C6      18.141977   13.120994   19.246865 C.3        1 MOL1         0.0138
      18    H8      19.082240   13.282768   18.702515 H          1 MOL1         0.0794
      19    H9      17.322426   13.242391   18.525838 H          1 MOL1         0.0794
      20    O5      18.124313   11.800920   19.803884 O.3        1 MOL1        -0.5486
      21    H10     18.136347   11.162095   19.057765 H          1 MOL1         0.3769
      22    C7      15.033039   20.231466   20.523832 C.3        1 MOL1         0.2972
      23    H11     14.368474   21.036841   20.185657 H          1 MOL1         0.0751
      24    O6      16.326132   20.745054   20.906712 O.3        1 MOL1        -0.3740
      25    C8      14.405798   19.451535   21.714659 C.3        1 MOL1         0.1003
      26    H12     13.460555   19.025875   21.353341 H          1 MOL1         0.0783
      27    O7      14.126448   20.305114   22.834507 O.3        1 MOL1        -0.5519
      28    H13     14.992267   20.674443   23.142671 H          1 MOL1         0.3769
      29    C9      15.316070   18.276342   22.149287 C.3        1 MOL1         0.1053
      30    H14     16.243159   18.695719   22.560321 H          1 MOL1         0.0783
      31    O8      14.643999   17.506258   23.153058 O.3        1 MOL1        -0.5519
      32    H15     14.219782   18.171500   23.741050 H          1 MOL1         0.3769
      33    C10     15.681226   17.388431   20.931020 C.3        1 MOL1         0.1018
      34    H16     14.788308   16.832673   20.616009 H          1 MOL1         0.0783
      35    C11     16.196920   18.229504   19.734216 C.3        1 MOL1         0.1043
      36    H17     17.160039   18.673598   20.013385 H          1 MOL1         0.0783
      37    O9      15.246520   19.285696   19.451104 O.3        1 MOL1        -0.3740
      38    C12     16.443746   17.404818   18.444923 C.3        1 MOL1         0.0138
      39    H18     17.435799   16.940350   18.516706 H          1 MOL1         0.0794
      40    H19     16.473056   18.092190   17.589024 H          1 MOL1         0.0794
      41    O10     15.456495   16.388687   18.229917 O.3        1 MOL1        -0.5486
      42    H20     15.594080   15.698041   18.915523 H          1 MOL1         0.3769
      43    C13     18.466137   24.123901   21.846069 C.3        1 MOL1         0.2972
      44    H21     18.858711   25.109838   22.126478 H          1 MOL1         0.0751
      45    O11     19.493205   23.271856   21.294403 O.3        1 MOL1        -0.3740
      46    C14     17.819157   23.424595   23.069930 C.3        1 MOL1         0.1003
      47    H22     16.960132   24.033418   23.381102 H          1 MOL1         0.0783
      48    O12     18.731274   23.297417   24.171863 O.3        1 MOL1        -0.5519
      49    H23     19.578562   23.731903   23.907234 H          1 MOL1         0.3769
      50    C15     17.301987   22.029911   22.665439 C.3        1 MOL1         0.1053
      51    H24     18.178787   21.433825   22.395214 H          1 MOL1         0.0783
      52    O13     16.634487   21.426554   23.777936 O.3        1 MOL1        -0.5519
      53    H25     17.190580   21.665556   24.554317 H          1 MOL1         0.3769
      54    C16     16.368183   22.088255   21.431895 C.3        1 MOL1         0.1018
      55    H26     15.379485   22.437864   21.757204 H          1 MOL1         0.0783
      56    C17     16.916400   23.010146   20.301511 C.3        1 MOL1         0.1043
      57    H27     17.735574   22.478269   19.800340 H          1 MOL1         0.0783
      58    O14     17.430588   24.253855   20.848883 O.3        1 MOL1        -0.3740
      59    C18     15.867655   23.349024   19.215372 C.3        1 MOL1         0.0138
      60    H28     15.677600   22.445662   18.620207 H          1 MOL1         0.0794
      61    H29     16.295368   24.100769   18.538468 H          1 MOL1         0.0794
      62    O15     14.639865   23.827067   19.778657 O.3        1 MOL1        -0.5486
      63    H30     14.058083   24.101783   19.036401 H          1 MOL1         0.3769
      64    C19     23.567273   22.831724   20.920304 C.3        1 MOL1         0.2972
      65    H31     24.645314   22.915058   20.732289 H          1 MOL1         0.0751
      66    O16     23.170573   21.454435   21.105955 O.3        1 MOL1        -0.3740
      67    C20     23.146889   23.682897   22.148641 C.3        1 MOL1         0.1003
      68    H32     23.367610   24.729316   21.900205 H          1 MOL1         0.0783
      69    O17     23.875231   23.328338   23.333384 O.3        1 MOL1        -0.5519
      70    H33     23.611011   22.402145   23.564475 H          1 MOL1         0.3769
      71    C21     21.625013   23.567981   22.401990 C.3        1 MOL1         0.1053
      72    H34     21.411529   22.540573   22.727995 H          1 MOL1         0.0783
      73    O18     21.260676   24.492244   23.431810 O.3        1 MOL1        -0.5519
      74    H35     21.985898   24.434282   24.095023 H          1 MOL1         0.3769
      75    C22     20.801173   23.849614   21.116368 C.3        1 MOL1         0.1018
      76    H36     20.747854   24.933450   20.953409 H          1 MOL1         0.0783
      77    C23     21.394704   23.172138   19.848775 C.3        1 MOL1         0.1043
      78    H37     21.176628   22.100143   19.903565 H          1 MOL1         0.0783
      79    O19     22.830911   23.352157   19.793897 O.3        1 MOL1        -0.3740
      80    C24     20.774600   23.681573   18.524342 C.3        1 MOL1         0.0138
      81    H38     19.742276   23.312915   18.456043 H          1 MOL1         0.0794
      82    H39     21.332228   23.239294   17.688149 H          1 MOL1         0.0794
      83    O20     20.786052   25.110531   18.419050 O.3        1 MOL1        -0.5486
      84    H40     20.064939   25.456392   18.987411 H          1 MOL1         0.3769
      85    C25     24.603952   17.696546   22.129496 C.3        1 MOL1         0.2972
      86    H41     25.201080   16.848839   22.488508 H          1 MOL1         0.0751
      87    O21     23.451571   17.255000   21.381761 O.3        1 MOL1        -0.3740
      88    C26     24.127670   18.559532   23.325743 C.3        1 MOL1         0.1003
      89    H42     25.025767   18.912775   23.849084 H          1 MOL1         0.0783
      90    O22     23.317236   17.797890   24.235395 O.3        1 MOL1        -0.5519
      91    H43     23.551677   16.847583   24.105592 H          1 MOL1         0.3769
      92    C27     23.338028   19.791222   22.831004 C.3        1 MOL1         0.1053
      93    H44     22.411257   19.428348   22.374680 H          1 MOL1         0.0783
      94    O23     23.028834   20.626482   23.950233 O.3        1 MOL1        -0.5519
      95    H45     22.735978   19.999373   24.649183 H          1 MOL1         0.3769
      96    C28     24.121449   20.584329   21.755525 C.3        1 MOL1         0.1018
      97    H46     24.925972   21.145406   22.248855 H          1 MOL1         0.0783
      98    C29     24.723438   19.658469   20.660448 C.3        1 MOL1         0.1043
      99    H47     23.900883   19.283571   20.039170 H          1 MOL1         0.0783
     100    O24     25.405052   18.533423   21.269209 O.3        1 MOL1        -0.3740
     101    C30     25.716545   20.379469   19.717619 C.3        1 MOL1         0.0138
     102    H48     25.149335   21.061626   19.069977 H          1 MOL1         0.0794
     103    H49     26.188870   19.630601   19.067764 H          1 MOL1         0.0794
     104    O25     26.713874   21.112730   20.439772 O.3        1 MOL1        -0.5486
     105    H50     27.354123   21.468942   19.785631 H          1 MOL1         0.3769
     106    C31     21.359660   13.736328   20.702983 C.3        1 MOL1         0.2972
     107    H51     21.002777   12.738453   20.417099 H          1 MOL1         0.0751
     108    O26     20.266767   14.630099   20.997061 O.3        1 MOL1        -0.3740
     109    C32     22.319261   13.672659   21.920236 C.3        1 MOL1         0.1003
     110    H52     23.207591   13.113654   21.597952 H          1 MOL1         0.0783
     111    O27     21.733663   12.990800   23.038609 O.3        1 MOL1        -0.5519
     112    H53     20.927588   13.499927   23.305840 H          1 MOL1         0.3769
     113    C33     22.777731   15.098028   22.317982 C.3        1 MOL1         0.1053
     114    H54     21.898083   15.659757   22.659813 H          1 MOL1         0.0783
     115    O28     23.729515   14.996252   23.383039 O.3        1 MOL1        -0.5519
     116    H55     23.390427   14.271921   23.957151 H          1 MOL1         0.3769
     117    C34     23.387582   15.842764   21.095210 C.3        1 MOL1         0.1018
     118    H56     24.385079   15.433019   20.891608 H          1 MOL1         0.0783
     119    C35     22.513445   15.704842   19.816709 C.3        1 MOL1         0.1043
     120    H57     21.614563   16.319416   19.951933 H          1 MOL1         0.0783
     121    O29     22.114479   14.324324   19.621783 O.3        1 MOL1        -0.3740
     122    C36     23.211688   16.209475   18.529257 C.3        1 MOL1         0.0138
     123    H58     23.257311   17.306051   18.561636 H          1 MOL1         0.0794
     124    H59     22.589127   15.937110   17.666688 H          1 MOL1         0.0794
     125    O30     24.532375   15.677729   18.368810 O.3        1 MOL1        -0.5486
     126    H60     25.115953   16.135001   19.011762 H          1 MOL1         0.3769
     127    C1      20.612255   19.157121   19.653127 C.3        1 MOL1        -0.2224
     128    H1      20.741679   19.968915   18.926414 H          1 MOL1         0.1052
     129    H2      21.604673   18.750469   19.880700 H          1 MOL1         0.1052
     130    H3      20.017628   18.367868   19.175258 H          1 MOL1         0.1052
     131    C2      19.926660   19.671293   20.935923 C.3        1 MOL1        -0.1209
     132    H4      18.970891   20.142780   20.671889 H          1 MOL1         0.1041
     133    H5      20.545414   20.453310   21.397159 H          1 MOL1         0.1041
     134    C3      19.688384   18.532187   21.950088 C.3        1 MOL1        -0.1274
     135    H6      18.999910   17.803645   21.509143 H          1 MOL1         0.1041
     136    H7      20.632219   18.005960   22.143210 H          1 MOL1         0.1041
     137    C4      19.104378   19.067491   23.274445 C.3        1 MOL1         0.0313
     138    H8      18.134102   19.526335   23.071944 H          1 MOL1         0.1015
     139    H9      19.765341   19.838842   23.678875 H          1 MOL1         0.1015
     140    N1      18.886396   18.035393   24.368447 N.4        1 MOL1        -0.4809
     141    H10     18.249649   17.277327   24.053290 H          1 MOL1         0.3726
     142    H11     18.385899   18.474645   25.155858 H          1 MOL1         0.3726
     143    C5      20.210666   17.464441   24.861696 C.3        1 MOL1        -0.0677
     144    H12     20.853627   18.279931   25.199820 H          1 MOL1         0.1026
     145    H13     20.019095   16.778818   25.689580 H          1 MOL1         0.1026
     146    H14     20.701125   16.925788   24.048657 H          1 MOL1         0.1026
@<TRIPOS>BOND
    1     1     2    1
    2     1     3    1
    3     1     4    1
    4     4     5    1
    5     4     6    1
    6     6     7    1
    7     4     8    1
    8     8     9    1
    9     8    10    1
   10    10    11    1
   11     8    12    1
   12    12    13    1
   13    12    14    1
   14    14    15    1
   15     1    16    1
   16    14    16    1
   17    14    17    1
   18    17    18    1
   19    17    19    1
   20    17    20    1
   21    20    21    1
   22    22    23    1
   23    22    24    1
   24    22    25    1
   25    25    26    1
   26    25    27    1
   27    27    28    1
   28    25    29    1
   29    29    30    1
   30    29    31    1
   31    31    32    1
   32     3    33    1
   33    29    33    1
   34    33    34    1
   35    33    35    1
   36    35    36    1
   37    22    37    1
   38    35    37    1
   39    35    38    1
   40    38    39    1
   41    38    40    1
   42    38    41    1
   43    41    42    1
   44    43    44    1
   45    43    45    1
   46    43    46    1
   47    46    47    1
   48    46    48    1
   49    48    49    1
   50    46    50    1
   51    50    51    1
   52    50    52    1
   53    52    53    1
   54    24    54    1
   55    50    54    1
   56    54    55    1
   57    54    56    1
   58    56    57    1
   59    43    58    1
   60    56    58    1
   61    56    59    1
   62    59    60    1
   63    59    61    1
   64    59    62    1
   65    62    63    1
   66    64    65    1
   67    64    66    1
   68    64    67    1
   69    67    68    1
   70    67    69    1
   71    69    70    1
   72    67    71    1
   73    71    72    1
   74    71    73    1
   75    73    74    1
   76    45    75    1
   77    71    75    1
   78    75    76    1
   79    75    77    1
   80    77    78    1
   81    64    79    1
   82    77    79    1
   83    77    80    1
   84    80    81    1
   85    80    82    1
   86    80    83    1
   87    83    84    1
   88    85    86    1
   89    85    87    1
   90    85    88    1
   91    88    89    1
   92    88    90    1
   93    90    91    1
   94    88    92    1
   95    92    93    1
   96    92    94    1
   97    94    95    1
   98    66    96    1
   99    92    96    1
  100    96    97    1
  101    96    98    1
  102    98    99    1
  103    85   100    1
  104    98   100    1
  105    98   101    1
  106   101   102    1
  107   101   103    1
  108   101   104    1
  109   104   105    1
  110   106   107    1
  111    12   108    1
  112   106   108    1
  113   106   109    1
  114   109   110    1
  115   109   111    1
  116   111   112    1
  117   109   113    1
  118   113   114    1
  119   113   115    1
  120   115   116    1
  121    87   117    1
  122   113   117    1
  123   117   118    1
  124   117   119    1
  125   119   120    1
  126   106   121    1
  127   119   121    1
  128   119   122    1
  129   122   123    1
  130   122   124    1
  131   122   125    1
  132   125   126    1
  133   127   128    1
  134   127   129    1
  135   127   130    1
  136   127   131    1
  137   131   132    1
  138   131   133    1
  139   131   134    1
  140   134   135    1
  141   134   136    1
  142   134   137    1
  143   137   138    1
  144   137   139    1
  145   137   140    1
  146   140   141    1
  147   140   142    1
  148   140   143    1
  149   143   144    1
  150   143   145    1
  151   143   146    1
@<TRIPOS>SUBSTRUCTURE
       1 MOL1            1 RESIDUE      1      MOL     
       2 MOL1          146 RESIDUE      1      MOL     
@<SCITEGIC>MOL_PROPERTY
feprocess Rank
SciTegic.value.IntegerValue
6

@<SCITEGIC>MOL_PROPERTY
Conf_Id
SciTegic.value.IntegerValue
782

@<SCITEGIC>MOL_PROPERTY
Probability
SciTegic.value.DoubleValue
1.72

@<SCITEGIC>MOL_PROPERTY
G
SciTegic.value.DoubleValue
587.800

@<SCITEGIC>MOL_PROPERTY
E
SciTegic.value.DoubleValue
393.829

@<SCITEGIC>MOL_PROPERTY
-TS
SciTegic.value.DoubleValue
193.972

@<SCITEGIC>MOL_PROPERTY
U+W
SciTegic.value.DoubleValue
265.058

@<SCITEGIC>MOL_PROPERTY
U
SciTegic.value.DoubleValue
346.901

@<SCITEGIC>MOL_PROPERTY
W
SciTegic.value.DoubleValue
-81.843

@<SCITEGIC>MOL_PROPERTY
W(PB)
SciTegic.value.DoubleValue
-87.892

@<SCITEGIC>MOL_PROPERTY
W(SA)
SciTegic.value.DoubleValue
6.049

@<SCITEGIC>MOL_PROPERTY
Valence
SciTegic.value.DoubleValue
145.163

@<SCITEGIC>MOL_PROPERTY
Coulomb
SciTegic.value.DoubleValue
225.081

@<SCITEGIC>MOL_PROPERTY
VdW
SciTegic.value.DoubleValue
-23.343

@<SCITEGIC>MOL_PROPERTY
VdW6
SciTegic.value.DoubleValue
-178.474

@<SCITEGIC>MOL_PROPERTY
VdW12
SciTegic.value.DoubleValue
155.131

@<SCITEGIC>MOL_PROPERTY
Bond
SciTegic.value.DoubleValue
4.780

@<SCITEGIC>MOL_PROPERTY
Angle
SciTegic.value.DoubleValue
12.838

@<SCITEGIC>MOL_PROPERTY
Pdih
SciTegic.value.DoubleValue
127.544

@<SCITEGIC>MOL_PROPERTY
Idih
SciTegic.value.DoubleValue
0.000

@<SCITEGIC>MOL_PROPERTY
Tether
SciTegic.value.DoubleValue
0.000

@<TRIPOS>MOLECULE
CD_guest-s9_fast_vm2_rndm.mol2 : feprocess host+ligand conformer 7
         146         151           2
SMALL
USER_CHARGES
 
@<TRIPOS>ATOM
       1    C1      16.301713   15.266570   21.725566 C.3        1 MOL1         0.2972
       2    H1      15.219030   15.198697   21.894524 H          1 MOL1         0.0751
       3    O1      16.707373   16.615980   21.425842 O.3        1 MOL1        -0.3740
       4    C2      17.056281   14.797626   22.990064 C.3        1 MOL1         0.1003
       5    H2      16.770471   13.753935   23.175239 H          1 MOL1         0.0783
       6    O2      16.697985   15.603110   24.126261 O.3        1 MOL1        -0.5519
       7    H3      16.005385   16.240055   23.823192 H          1 MOL1         0.3769
       8    C3      18.583057   14.852491   22.769444 C.3        1 MOL1         0.1053
       9    H4      18.869191   15.907905   22.708152 H          1 MOL1         0.0783
      10    O3      19.235371   14.245378   23.887274 O.3        1 MOL1        -0.5519
      11    H5      18.719808   14.546705   24.668301 H          1 MOL1         0.3769
      12    C4      19.023733   14.167098   21.451991 C.3        1 MOL1         0.1018
      13    H6      19.073340   13.082256   21.614917 H          1 MOL1         0.0783
      14    C5      18.095931   14.495354   20.246584 C.3        1 MOL1         0.1043
      15    H7      18.323435   15.518857   19.924720 H          1 MOL1         0.0783
      16    O4      16.696940   14.425350   20.622794 O.3        1 MOL1        -0.3740
      17    C6      18.326012   13.574937   19.024452 C.3        1 MOL1         0.0138
      18    H8      19.305099   13.814303   18.587607 H          1 MOL1         0.0794
      19    H9      17.565666   13.802157   18.265078 H          1 MOL1         0.0794
      20    O5      18.278679   12.187286   19.378347 O.3        1 MOL1        -0.5486
      21    H10     18.358258   11.665460   18.550039 H          1 MOL1         0.3769
      22    C7      14.946398   20.294504   20.554527 C.3        1 MOL1         0.2972
      23    H11     14.294287   21.097577   20.187297 H          1 MOL1         0.0751
      24    O6      16.200625   20.808771   21.043657 O.3        1 MOL1        -0.3740
      25    C8      14.265008   19.489679   21.695838 C.3        1 MOL1         0.1003
      26    H12     13.356396   19.038388   21.276382 H          1 MOL1         0.0783
      27    O7      13.897567   20.334850   22.796662 O.3        1 MOL1        -0.5519
      28    H13     14.716627   20.802763   23.099369 H          1 MOL1         0.3769
      29    C9      15.188186   18.341793   22.176722 C.3        1 MOL1         0.1053
      30    H14     16.075356   18.788745   22.643649 H          1 MOL1         0.0783
      31    O8      14.498682   17.531263   23.134788 O.3        1 MOL1        -0.5519
      32    H15     14.030405   18.168828   23.719495 H          1 MOL1         0.3769
      33    C10     15.647539   17.476799   20.975718 C.3        1 MOL1         0.1018
      34    H16     14.785242   16.904403   20.608626 H          1 MOL1         0.0783
      35    C11     16.207865   18.332733   19.809177 C.3        1 MOL1         0.1043
      36    H17     17.145798   18.797791   20.136586 H          1 MOL1         0.0783
      37    O9      15.246357   19.367642   19.485018 O.3        1 MOL1        -0.3740
      38    C12     16.538025   17.523323   18.527269 C.3        1 MOL1         0.0138
      39    H18     17.576539   17.175694   18.596976 H          1 MOL1         0.0794
      40    H19     16.487634   18.198919   17.662970 H          1 MOL1         0.0794
      41    O10     15.672054   16.398705   18.325507 O.3        1 MOL1        -0.5486
      42    H20     15.877200   15.739647   19.028142 H          1 MOL1         0.3769
      43    C13     18.451822   24.113633   21.833533 C.3        1 MOL1         0.2972
      44    H21     18.900426   25.092697   22.046699 H          1 MOL1         0.0751
      45    O11     19.452166   23.112294   21.562247 O.3        1 MOL1        -0.3740
      46    C14     17.617780   23.638692   23.044767 C.3        1 MOL1         0.1003
      47    H22     16.797449   24.353647   23.190160 H          1 MOL1         0.0783
      48    O12     18.428551   23.586435   24.230816 O.3        1 MOL1        -0.5519
      49    H23     19.368440   23.704843   23.946312 H          1 MOL1         0.3769
      50    C15     17.010188   22.249677   22.755981 C.3        1 MOL1         0.1053
      51    H24     17.842355   21.542670   22.691983 H          1 MOL1         0.0783
      52    O13     16.146477   21.871654   23.831213 O.3        1 MOL1        -0.5519
      53    H25     16.630818   22.136017   24.645573 H          1 MOL1         0.3769
      54    C16     16.251677   22.202285   21.405604 C.3        1 MOL1         0.1018
      55    H26     15.251816   22.634378   21.545245 H          1 MOL1         0.0783
      56    C17     17.005430   22.926176   20.250133 C.3        1 MOL1         0.1043
      57    H27     17.821534   22.267460   19.928453 H          1 MOL1         0.0783
      58    O14     17.573408   24.187234   20.691821 O.3        1 MOL1        -0.3740
      59    C18     16.123508   23.191569   19.007035 C.3        1 MOL1         0.0138
      60    H28     15.912143   22.231159   18.517639 H          1 MOL1         0.0794
      61    H29     16.695345   23.801344   18.294572 H          1 MOL1         0.0794
      62    O15     14.894417   23.844164   19.347912 O.3        1 MOL1        -0.5486
      63    H30     14.425001   24.052376   18.510571 H          1 MOL1         0.3769
      64    C19     23.524302   22.707081   20.847688 C.3        1 MOL1         0.2972
      65    H31     24.572251   22.845504   20.552102 H          1 MOL1         0.0751
      66    O16     23.241661   21.326172   21.159040 O.3        1 MOL1        -0.3740
      67    C20     23.155581   23.606433   22.062057 C.3        1 MOL1         0.1003
      68    H32     23.284802   24.648376   21.741334 H          1 MOL1         0.0783
      69    O17     24.003228   23.364732   23.194575 O.3        1 MOL1        -0.5519
      70    H33     23.844745   22.430049   23.480823 H          1 MOL1         0.3769
      71    C21     21.669378   23.408527   22.446636 C.3        1 MOL1         0.1053
      72    H34     21.547397   22.378169   22.803730 H          1 MOL1         0.0783
      73    O18     21.304784   24.324812   23.484222 O.3        1 MOL1        -0.5519
      74    H35     22.061512   24.316416   24.112479 H          1 MOL1         0.3769
      75    C22     20.753455   23.610869   21.214440 C.3        1 MOL1         0.1018
      76    H36     20.733049   24.679703   20.963732 H          1 MOL1         0.0783
      77    C23     21.238939   22.809223   19.976591 C.3        1 MOL1         0.1043
      78    H37     21.103404   21.739739   20.184427 H          1 MOL1         0.0783
      79    O19     22.646858   23.083160   19.760723 O.3        1 MOL1        -0.3740
      80    C24     20.456611   23.108739   18.670089 C.3        1 MOL1         0.0138
      81    H38     19.621364   22.400860   18.597312 H          1 MOL1         0.0794
      82    H39     21.114951   22.909006   17.814100 H          1 MOL1         0.0794
      83    O20     19.952019   24.448634   18.600968 O.3        1 MOL1        -0.5486
      84    H40     19.208506   24.514302   19.243845 H          1 MOL1         0.3769
      85    C25     24.805635   17.653160   22.117318 C.3        1 MOL1         0.2972
      86    H41     25.407619   16.787606   22.422487 H          1 MOL1         0.0751
      87    O21     23.566048   17.250186   21.502159 O.3        1 MOL1        -0.3740
      88    C26     24.484165   18.538490   23.345317 C.3        1 MOL1         0.1003
      89    H42     25.441965   18.879694   23.759499 H          1 MOL1         0.0783
      90    O22     23.763916   17.803664   24.350241 O.3        1 MOL1        -0.5519
      91    H43     23.867210   16.844090   24.138680 H          1 MOL1         0.3769
      92    C27     23.665997   19.778604   22.924076 C.3        1 MOL1         0.1053
      93    H44     22.676332   19.428718   22.605927 H          1 MOL1         0.0783
      94    O23     23.532270   20.644976   24.054506 O.3        1 MOL1        -0.5519
      95    H45     23.443642   20.034306   24.820233 H          1 MOL1         0.3769
      96    C28     24.302506   20.536098   21.731513 C.3        1 MOL1         0.1018
      97    H46     25.129697   21.155087   22.103146 H          1 MOL1         0.0783
      98    C29     24.806734   19.584222   20.608318 C.3        1 MOL1         0.1043
      99    H47     23.928891   19.204386   20.069999 H          1 MOL1         0.0783
     100    O24     25.533586   18.462484   21.170751 O.3        1 MOL1        -0.3740
     101    C30     25.711002   20.283109   19.565023 C.3        1 MOL1         0.0138
     102    H48     25.087949   20.953194   18.957392 H          1 MOL1         0.0794
     103    H49     26.121984   19.519883   18.890622 H          1 MOL1         0.0794
     104    O25     26.769993   21.028437   20.178633 O.3        1 MOL1        -0.5486
     105    H50     27.346909   21.372325   19.461851 H          1 MOL1         0.3769
     106    C31     21.366800   13.822072   20.773406 C.3        1 MOL1         0.2972
     107    H51     20.977309   12.841382   20.470862 H          1 MOL1         0.0751
     108    O26     20.308480   14.733017   21.132080 O.3        1 MOL1        -0.3740
     109    C32     22.344124   13.700165   21.972167 C.3        1 MOL1         0.1003
     110    H52     23.203812   13.108880   21.630681 H          1 MOL1         0.0783
     111    O27     21.738158   13.032744   23.089057 O.3        1 MOL1        -0.5519
     112    H53     20.903738   13.518852   23.309929 H          1 MOL1         0.3769
     113    C33     22.864203   15.099252   22.386996 C.3        1 MOL1         0.1053
     114    H54     22.014400   15.677692   22.772148 H          1 MOL1         0.0783
     115    O28     23.847321   14.953005   23.417653 O.3        1 MOL1        -0.5519
     116    H55     23.494983   14.246090   24.004923 H          1 MOL1         0.3769
     117    C34     23.458611   15.854928   21.165749 C.3        1 MOL1         0.1018
     118    H56     24.437491   15.422497   20.922242 H          1 MOL1         0.0783
     119    C35     22.546868   15.783123   19.909228 C.3        1 MOL1         0.1043
     120    H57     21.669661   16.417522   20.085983 H          1 MOL1         0.0783
     121    O29     22.107777   14.420063   19.688046 O.3        1 MOL1        -0.3740
     122    C36     23.220360   16.309821   18.617210 C.3        1 MOL1         0.0138
     123    H58     23.251022   17.406383   18.662021 H          1 MOL1         0.0794
     124    H59     22.588246   16.040097   17.760779 H          1 MOL1         0.0794
     125    O30     24.545825   15.798945   18.429953 O.3        1 MOL1        -0.5486
     126    H60     25.132321   16.261569   19.066882 H          1 MOL1         0.3769
     127    C1      20.102521   18.239689   21.714500 C.3        1 MOL1        -0.2224
     128    H1      20.780245   17.573560   22.260871 H          1 MOL1         0.1052
     129    H2      19.610426   17.642342   20.936285 H          1 MOL1         0.1052
     130    H3      20.705900   19.010333   21.217345 H          1 MOL1         0.1052
     131    C2      19.051204   18.872422   22.652987 C.3        1 MOL1        -0.1209
     132    H4      18.440387   18.090642   23.117626 H          1 MOL1         0.1041
     133    H5      18.356740   19.463478   22.043843 H          1 MOL1         0.1041
     134    C3      19.667980   19.791966   23.735566 C.3        1 MOL1        -0.1274
     135    H6      20.156046   20.632132   23.226246 H          1 MOL1         0.1041
     136    H7      18.872259   20.234355   24.349132 H          1 MOL1         0.1041
     137    C4      20.713595   19.124646   24.657767 C.3        1 MOL1         0.0313
     138    H8      21.335539   19.919518   25.076569 H          1 MOL1         0.1015
     139    H9      21.369450   18.465839   24.084161 H          1 MOL1         0.1015
     140    N1      20.175294   18.347070   25.848766 N.4        1 MOL1        -0.4809
     141    H10     19.497109   18.916271   26.375774 H          1 MOL1         0.3726
     142    H11     20.950632   18.176861   26.507550 H          1 MOL1         0.3726
     143    C5      19.568246   17.011851   25.443192 C.3        1 MOL1        -0.0677
     144    H12     19.332227   16.440956   26.343703 H          1 MOL1         0.1026
     145    H13     18.651754   17.181822   24.876762 H          1 MOL1         0.1026
     146    H14     20.287626   16.458340   24.835143 H          1 MOL1         0.1026
@<TRIPOS>BOND
    1     1     2    1
    2     1     3    1
    3     1     4    1
    4     4     5    1
    5     4     6    1
    6     6     7    1
    7     4     8    1
    8     8     9    1
    9     8    10    1
   10    10    11    1
   11     8    12    1
   12    12    13    1
   13    12    14    1
   14    14    15    1
   15     1    16    1
   16    14    16    1
   17    14    17    1
   18    17    18    1
   19    17    19    1
   20    17    20    1
   21    20    21    1
   22    22    23    1
   23    22    24    1
   24    22    25    1
   25    25    26    1
   26    25    27    1
   27    27    28    1
   28    25    29    1
   29    29    30    1
   30    29    31    1
   31    31    32    1
   32     3    33    1
   33    29    33    1
   34    33    34    1
   35    33    35    1
   36    35    36    1
   37    22    37    1
   38    35    37    1
   39    35    38    1
   40    38    39    1
   41    38    40    1
   42    38    41    1
   43    41    42    1
   44    43    44    1
   45    43    45    1
   46    43    46    1
   47    46    47    1
   48    46    48    1
   49    48    49    1
   50    46    50    1
   51    50    51    1
   52    50    52    1
   53    52    53    1
   54    24    54    1
   55    50    54    1
   56    54    55    1
   57    54    56    1
   58    56    57    1
   59    43    58    1
   60    56    58    1
   61    56    59    1
   62    59    60    1
   63    59    61    1
   64    59    62    1
   65    62    63    1
   66    64    65    1
   67    64    66    1
   68    64    67    1
   69    67    68    1
   70    67    69    1
   71    69    70    1
   72    67    71    1
   73    71    72    1
   74    71    73    1
   75    73    74    1
   76    45    75    1
   77    71    75    1
   78    75    76    1
   79    75    77    1
   80    77    78    1
   81    64    79    1
   82    77    79    1
   83    77    80    1
   84    80    81    1
   85    80    82    1
   86    80    83    1
   87    83    84    1
   88    85    86    1
   89    85    87    1
   90    85    88    1
   91    88    89    1
   92    88    90    1
   93    90    91    1
   94    88    92    1
   95    92    93    1
   96    92    94    1
   97    94    95    1
   98    66    96    1
   99    92    96    1
  100    96    97    1
  101    96    98    1
  102    98    99    1
  103    85   100    1
  104    98   100    1
  105    98   101    1
  106   101   102    1
  107   101   103    1
  108   101   104    1
  109   104   105    1
  110   106   107    1
  111    12   108    1
  112   106   108    1
  113   106   109    1
  114   109   110    1
  115   109   111    1
  116   111   112    1
  117   109   113    1
  118   113   114    1
  119   113   115    1
  120   115   116    1
  121    87   117    1
  122   113   117    1
  123   117   118    1
  124   117   119    1
  125   119   120    1
  126   106   121    1
  127   119   121    1
  128   119   122    1
  129   122   123    1
  130   122   124    1
  131   122   125    1
  132   125   126    1
  133   127   128    1
  134   127   129    1
  135   127   130    1
  136   127   131    1
  137   131   132    1
  138   131   133    1
  139   131   134    1
  140   134   135    1
  141   134   136    1
  142   134   137    1
  143   137   138    1
  144   137   139    1
  145   137   140    1
  146   140   141    1
  147   140   142    1
  148   140   143    1
  149   143   144    1
  150   143   145    1
  151   143   146    1
@<TRIPOS>SUBSTRUCTURE
       1 MOL1            1 RESIDUE      1      MOL     
       2 MOL1          146 RESIDUE      1      MOL     
@<SCITEGIC>MOL_PROPERTY
feprocess Rank
SciTegic.value.IntegerValue
7

@<SCITEGIC>MOL_PROPERTY
Conf_Id
SciTegic.value.IntegerValue
315

@<SCITEGIC>MOL_PROPERTY
Probability
SciTegic.value.DoubleValue
0.95

@<SCITEGIC>MOL_PROPERTY
G
SciTegic.value.DoubleValue
588.152

@<SCITEGIC>MOL_PROPERTY
E
SciTegic.value.DoubleValue
396.705

@<SCITEGIC>MOL_PROPERTY
-TS
SciTegic.value.DoubleValue
191.447

@<SCITEGIC>MOL_PROPERTY
U+W
SciTegic.value.DoubleValue
267.934

@<SCITEGIC>MOL_PROPERTY
U
SciTegic.value.DoubleValue
356.173

@<SCITEGIC>MOL_PROPERTY
W
SciTegic.value.DoubleValue
-88.239

@<SCITEGIC>MOL_PROPERTY
W(PB)
SciTegic.value.DoubleValue
-94.276

@<SCITEGIC>MOL_PROPERTY
W(SA)
SciTegic.value.DoubleValue
6.037

@<SCITEGIC>MOL_PROPERTY
Valence
SciTegic.value.DoubleValue
149.423

@<SCITEGIC>MOL_PROPERTY
Coulomb
SciTegic.value.DoubleValue
229.676

@<SCITEGIC>MOL_PROPERTY
VdW
SciTegic.value.DoubleValue
-22.927

@<SCITEGIC>MOL_PROPERTY
VdW6
SciTegic.value.DoubleValue
-174.276

@<SCITEGIC>MOL_PROPERTY
VdW12
SciTegic.value.DoubleValue
151.349

@<SCITEGIC>MOL_PROPERTY
Bond
SciTegic.value.DoubleValue
4.675

@<SCITEGIC>MOL_PROPERTY
Angle
SciTegic.value.DoubleValue
13.029

@<SCITEGIC>MOL_PROPERTY
Pdih
SciTegic.value.DoubleValue
131.720

@<SCITEGIC>MOL_PROPERTY
Idih
SciTegic.value.DoubleValue
0.000

@<SCITEGIC>MOL_PROPERTY
Tether
SciTegic.value.DoubleValue
0.000

@<TRIPOS>MOLECULE
CD_guest-s9_fast_vm2_rndm.mol2 : feprocess host+ligand conformer 8
         146         151           2
SMALL
USER_CHARGES
 
@<TRIPOS>ATOM
       1    C1      16.452975   15.447890   22.111430 C.3        1 MOL1         0.2972
       2    H1      15.427377   15.376607   22.494915 H          1 MOL1         0.0751
       3    O1      16.670679   16.688216   21.410046 O.3        1 MOL1        -0.3740
       4    C2      17.468507   15.344294   23.278373 C.3        1 MOL1         0.1003
       5    H2      17.278974   14.388697   23.784763 H          1 MOL1         0.0783
       6    O2      17.314187   16.423830   24.217940 O.3        1 MOL1        -0.5519
       7    H3      16.363076   16.692202   24.185369 H          1 MOL1         0.3769
       8    C3      18.921442   15.338901   22.758594 C.3        1 MOL1         0.1053
       9    H4      19.135857   16.341770   22.374731 H          1 MOL1         0.0783
      10    O3      19.787559   15.041152   23.856979 O.3        1 MOL1        -0.5519
      11    H5      19.370124   15.466928   24.636972 H          1 MOL1         0.3769
      12    C4      19.147051   14.337808   21.597625 C.3        1 MOL1         0.1018
      13    H6      19.234701   13.324622   22.011398 H          1 MOL1         0.0783
      14    C5      18.006281   14.380948   20.543113 C.3        1 MOL1         0.1043
      15    H7      18.106539   15.312324   19.970923 H          1 MOL1         0.0783
      16    O4      16.712360   14.364018   21.195331 O.3        1 MOL1        -0.3740
      17    C6      18.062504   13.213462   19.528835 C.3        1 MOL1         0.0138
      18    H8      18.925341   13.369274   18.867185 H          1 MOL1         0.0794
      19    H9      17.160703   13.249313   18.903021 H          1 MOL1         0.0794
      20    O5      18.171026   11.938650   20.174629 O.3        1 MOL1        -0.5486
      21    H10     18.123140   11.246966   19.478901 H          1 MOL1         0.3769
      22    C7      14.725279   20.333431   20.942318 C.3        1 MOL1         0.2972
      23    H11     14.007986   21.136610   20.731067 H          1 MOL1         0.0751
      24    O6      16.035494   20.849468   21.245284 O.3        1 MOL1        -0.3740
      25    C8      14.255476   19.521547   22.172215 C.3        1 MOL1         0.1003
      26    H12     13.274004   19.092128   21.932234 H          1 MOL1         0.0783
      27    O7      14.134199   20.379170   23.318809 O.3        1 MOL1        -0.5519
      28    H13     14.831658   21.075675   23.234110 H          1 MOL1         0.3769
      29    C9      15.229978   18.357936   22.472282 C.3        1 MOL1         0.1053
      30    H14     16.177344   18.795498   22.809039 H          1 MOL1         0.0783
      31    O8      14.676329   17.555416   23.520950 O.3        1 MOL1        -0.5519
      32    H15     14.298407   18.202980   24.158972 H          1 MOL1         0.3769
      33    C10     15.503896   17.508762   21.197290 C.3        1 MOL1         0.1018
      34    H16     14.619926   16.895722   20.979643 H          1 MOL1         0.0783
      35    C11     15.827315   18.390149   19.959240 C.3        1 MOL1         0.1043
      36    H17     16.812274   18.847981   20.115980 H          1 MOL1         0.0783
      37    O9      14.835730   19.437097   19.817619 O.3        1 MOL1        -0.3740
      38    C12     15.908496   17.594433   18.632513 C.3        1 MOL1         0.0138
      39    H18     16.845402   17.021681   18.625436 H          1 MOL1         0.0794
      40    H19     15.959147   18.307599   17.799230 H          1 MOL1         0.0794
      41    O10     14.800408   16.705322   18.450078 O.3        1 MOL1        -0.5486
      42    H20     14.918521   15.955615   19.072370 H          1 MOL1         0.3769
      43    C13     18.506380   24.129718   20.643085 C.3        1 MOL1         0.2972
      44    H21     18.950302   25.097639   20.377147 H          1 MOL1         0.0751
      45    O11     19.520008   23.170721   21.012508 O.3        1 MOL1        -0.3740
      46    C14     17.461381   24.281861   21.785293 C.3        1 MOL1         0.1003
      47    H22     16.660403   24.927053   21.401366 H          1 MOL1         0.0783
      48    O12     18.017838   24.891418   22.959132 O.3        1 MOL1        -0.5519
      49    H23     18.678358   24.252038   23.326774 H          1 MOL1         0.3769
      50    C15     16.837619   22.909078   22.132684 C.3        1 MOL1         0.1053
      51    H24     17.624987   22.272655   22.557497 H          1 MOL1         0.0783
      52    O13     15.785961   23.077690   23.089655 O.3        1 MOL1        -0.5519
      53    H25     16.144980   23.697254   23.762985 H          1 MOL1         0.3769
      54    C16     16.281185   22.215093   20.866370 C.3        1 MOL1         0.1018
      55    H26     15.361910   22.736736   20.569534 H          1 MOL1         0.0783
      56    C17     17.293937   22.228122   19.685941 C.3        1 MOL1         0.1043
      57    H27     18.124656   21.559014   19.941101 H          1 MOL1         0.0783
      58    O14     17.803947   23.575001   19.507666 O.3        1 MOL1        -0.3740
      59    C18     16.728181   21.727899   18.332523 C.3        1 MOL1         0.0138
      60    H28     16.809648   20.633965   18.303887 H          1 MOL1         0.0794
      61    H29     17.363748   22.115420   17.525131 H          1 MOL1         0.0794
      62    O15     15.366394   22.110837   18.112349 O.3        1 MOL1        -0.5486
      63    H30     14.806983   21.391524   18.481412 H          1 MOL1         0.3769
      64    C19     23.313401   22.526467   22.432800 C.3        1 MOL1         0.2972
      65    H31     24.320031   22.564747   22.868620 H          1 MOL1         0.0751
      66    O16     23.082455   21.288814   21.731141 O.3        1 MOL1        -0.3740
      67    C20     22.243331   22.672713   23.542152 C.3        1 MOL1         0.1003
      68    H32     22.402444   23.645413   24.025662 H          1 MOL1         0.0783
      69    O17     22.350744   21.625465   24.521812 O.3        1 MOL1        -0.5519
      70    H33     23.238201   21.207113   24.403591 H          1 MOL1         0.3769
      71    C21     20.826490   22.654326   22.932816 C.3        1 MOL1         0.1053
      72    H34     20.658711   21.648509   22.534777 H          1 MOL1         0.0783
      73    O18     19.875346   22.928759   23.965570 O.3        1 MOL1        -0.5519
      74    H35     20.215680   22.439895   24.748827 H          1 MOL1         0.3769
      75    C22     20.664325   23.642590   21.751953 C.3        1 MOL1         0.1018
      76    H36     20.521601   24.656828   22.146791 H          1 MOL1         0.0783
      77    C23     21.872377   23.612496   20.771382 C.3        1 MOL1         0.1043
      78    H37     21.802645   22.690463   20.180058 H          1 MOL1         0.0783
      79    O19     23.128458   23.609427   21.497271 O.3        1 MOL1        -0.3740
      80    C24     21.883723   24.792535   19.770643 C.3        1 MOL1         0.0138
      81    H38     21.065565   24.647522   19.052329 H          1 MOL1         0.0794
      82    H39     22.824086   24.762449   19.204018 H          1 MOL1         0.0794
      83    O20     21.736286   26.058756   20.425026 O.3        1 MOL1        -0.5486
      84    H40     21.832240   26.759738   19.743652 H          1 MOL1         0.3769
      85    C25     25.036132   17.657241   21.101501 C.3        1 MOL1         0.2972
      86    H41     25.777423   16.884521   20.861250 H          1 MOL1         0.0751
      87    O21     23.716468   17.102830   21.281607 O.3        1 MOL1        -0.3740
      88    C26     25.417909   18.380797   22.417821 C.3        1 MOL1         0.1003
      89    H42     26.401934   18.842707   22.264255 H          1 MOL1         0.0783
      90    O22     25.500805   17.454216   23.512643 O.3        1 MOL1        -0.5519
      91    H43     24.799347   16.768012   23.376738 H          1 MOL1         0.3769
      92    C27     24.408043   19.509977   22.740102 C.3        1 MOL1         0.1053
      93    H44     23.434707   19.050340   22.959344 H          1 MOL1         0.0783
      94    O23     24.871923   20.231744   23.886042 O.3        1 MOL1        -0.5519
      95    H45     25.208558   19.538168   24.498409 H          1 MOL1         0.3769
      96    C28     24.237192   20.456386   21.521233 C.3        1 MOL1         0.1018
      97    H46     25.148816   21.056252   21.402020 H          1 MOL1         0.0783
      98    C29     23.973931   19.669353   20.209573 C.3        1 MOL1         0.1043
      99    H47     22.991239   19.190576   20.284983 H          1 MOL1         0.0783
     100    O24     24.982702   18.645422   20.049013 O.3        1 MOL1        -0.3740
     101    C30     23.944058   20.556378   18.939369 C.3        1 MOL1         0.0138
     102    H48     22.965062   21.050361   18.884265 H          1 MOL1         0.0794
     103    H49     24.027494   19.907785   18.057234 H          1 MOL1         0.0794
     104    O25     24.980214   21.545595   18.924384 O.3        1 MOL1        -0.5486
     105    H50     24.749019   22.221439   19.598528 H          1 MOL1         0.3769
     106    C31     21.372625   13.761857   20.696892 C.3        1 MOL1         0.2972
     107    H51     20.931945   12.784239   20.462786 H          1 MOL1         0.0751
     108    O26     20.351071   14.759542   20.922041 O.3        1 MOL1        -0.3740
     109    C32     22.328293   13.672226   21.918275 C.3        1 MOL1         0.1003
     110    H52     23.169481   13.032752   21.620055 H          1 MOL1         0.0783
     111    O27     21.699608   13.087901   23.067485 O.3        1 MOL1        -0.5519
     112    H53     21.003224   13.724906   23.364861 H          1 MOL1         0.3769
     113    C33     22.894082   15.073942   22.246680 C.3        1 MOL1         0.1053
     114    H54     22.060266   15.722511   22.545037 H          1 MOL1         0.0783
     115    O28     23.837221   14.978966   23.318545 O.3        1 MOL1        -0.5519
     116    H55     23.422133   14.375494   23.974397 H          1 MOL1         0.3769
     117    C34     23.573727   15.696492   21.002702 C.3        1 MOL1         0.1018
     118    H56     24.542911   15.200772   20.860425 H          1 MOL1         0.0783
     119    C35     22.721289   15.558223   19.708357 C.3        1 MOL1         0.1043
     120    H57     21.890664   16.271533   19.770676 H          1 MOL1         0.0783
     121    O29     22.179413   14.216816   19.589921 O.3        1 MOL1        -0.3740
     122    C36     23.511928   15.881834   18.418158 C.3        1 MOL1         0.0138
     123    H58     23.723892   16.959017   18.399371 H          1 MOL1         0.0794
     124    H59     22.875185   15.659435   17.551486 H          1 MOL1         0.0794
     125    O30     24.738426   15.144575   18.337389 O.3        1 MOL1        -0.5486
     126    H60     25.168038   15.373975   17.484618 H          1 MOL1         0.3769
     127    C1      19.998460   18.659548   20.021643 C.3        1 MOL1        -0.2224
     128    H1      19.239150   17.879418   19.878185 H          1 MOL1         0.1052
     129    H2      19.618569   19.595023   19.591708 H          1 MOL1         0.1052
     130    H3      20.889456   18.368318   19.452472 H          1 MOL1         0.1052
     131    C2      20.333907   18.830463   21.518747 C.3        1 MOL1        -0.1209
     132    H4      21.131817   19.572806   21.636488 H          1 MOL1         0.1041
     133    H5      20.727896   17.881894   21.901070 H          1 MOL1         0.1041
     134    C3      19.091685   19.276822   22.322826 C.3        1 MOL1        -0.1274
     135    H6      18.694590   20.193970   21.870240 H          1 MOL1         0.1041
     136    H7      18.302375   18.524691   22.232760 H          1 MOL1         0.1041
     137    C4      19.354860   19.568416   23.816735 C.3        1 MOL1         0.0313
     138    H8      18.497994   20.127546   24.201917 H          1 MOL1         0.1015
     139    H9      20.240934   20.196729   23.937039 H          1 MOL1         0.1015
     140    N1      19.509924   18.353956   24.715300 N.4        1 MOL1        -0.4809
     141    H10     18.836675   17.611297   24.441710 H          1 MOL1         0.3726
     142    H11     19.232194   18.612394   25.673882 H          1 MOL1         0.3726
     143    C5      20.951165   17.854739   24.737291 C.3        1 MOL1        -0.0677
     144    H12     21.042263   17.063423   25.484398 H          1 MOL1         0.1026
     145    H13     21.219978   17.455601   23.759790 H          1 MOL1         0.1026
     146    H14     21.613963   18.683684   24.996640 H          1 MOL1         0.1026
@<TRIPOS>BOND
    1     1     2    1
    2     1     3    1
    3     1     4    1
    4     4     5    1
    5     4     6    1
    6     6     7    1
    7     4     8    1
    8     8     9    1
    9     8    10    1
   10    10    11    1
   11     8    12    1
   12    12    13    1
   13    12    14    1
   14    14    15    1
   15     1    16    1
   16    14    16    1
   17    14    17    1
   18    17    18    1
   19    17    19    1
   20    17    20    1
   21    20    21    1
   22    22    23    1
   23    22    24    1
   24    22    25    1
   25    25    26    1
   26    25    27    1
   27    27    28    1
   28    25    29    1
   29    29    30    1
   30    29    31    1
   31    31    32    1
   32     3    33    1
   33    29    33    1
   34    33    34    1
   35    33    35    1
   36    35    36    1
   37    22    37    1
   38    35    37    1
   39    35    38    1
   40    38    39    1
   41    38    40    1
   42    38    41    1
   43    41    42    1
   44    43    44    1
   45    43    45    1
   46    43    46    1
   47    46    47    1
   48    46    48    1
   49    48    49    1
   50    46    50    1
   51    50    51    1
   52    50    52    1
   53    52    53    1
   54    24    54    1
   55    50    54    1
   56    54    55    1
   57    54    56    1
   58    56    57    1
   59    43    58    1
   60    56    58    1
   61    56    59    1
   62    59    60    1
   63    59    61    1
   64    59    62    1
   65    62    63    1
   66    64    65    1
   67    64    66    1
   68    64    67    1
   69    67    68    1
   70    67    69    1
   71    69    70    1
   72    67    71    1
   73    71    72    1
   74    71    73    1
   75    73    74    1
   76    45    75    1
   77    71    75    1
   78    75    76    1
   79    75    77    1
   80    77    78    1
   81    64    79    1
   82    77    79    1
   83    77    80    1
   84    80    81    1
   85    80    82    1
   86    80    83    1
   87    83    84    1
   88    85    86    1
   89    85    87    1
   90    85    88    1
   91    88    89    1
   92    88    90    1
   93    90    91    1
   94    88    92    1
   95    92    93    1
   96    92    94    1
   97    94    95    1
   98    66    96    1
   99    92    96    1
  100    96    97    1
  101    96    98    1
  102    98    99    1
  103    85   100    1
  104    98   100    1
  105    98   101    1
  106   101   102    1
  107   101   103    1
  108   101   104    1
  109   104   105    1
  110   106   107    1
  111    12   108    1
  112   106   108    1
  113   106   109    1
  114   109   110    1
  115   109   111    1
  116   111   112    1
  117   109   113    1
  118   113   114    1
  119   113   115    1
  120   115   116    1
  121    87   117    1
  122   113   117    1
  123   117   118    1
  124   117   119    1
  125   119   120    1
  126   106   121    1
  127   119   121    1
  128   119   122    1
  129   122   123    1
  130   122   124    1
  131   122   125    1
  132   125   126    1
  133   127   128    1
  134   127   129    1
  135   127   130    1
  136   127   131    1
  137   131   132    1
  138   131   133    1
  139   131   134    1
  140   134   135    1
  141   134   136    1
  142   134   137    1
  143   137   138    1
  144   137   139    1
  145   137   140    1
  146   140   141    1
  147   140   142    1
  148   140   143    1
  149   143   144    1
  150   143   145    1
  151   143   146    1
@<TRIPOS>SUBSTRUCTURE
       1 MOL1            1 RESIDUE      1      MOL     
       2 MOL1          146 RESIDUE      1      MOL     
@<SCITEGIC>MOL_PROPERTY
feprocess Rank
SciTegic.value.IntegerValue
8

@<SCITEGIC>MOL_PROPERTY
Conf_Id
SciTegic.value.IntegerValue
219

@<SCITEGIC>MOL_PROPERTY
Probability
SciTegic.value.DoubleValue
0.94

@<SCITEGIC>MOL_PROPERTY
G
SciTegic.value.DoubleValue
588.164

@<SCITEGIC>MOL_PROPERTY
E
SciTegic.value.DoubleValue
396.252

@<SCITEGIC>MOL_PROPERTY
-TS
SciTegic.value.DoubleValue
191.912

@<SCITEGIC>MOL_PROPERTY
U+W
SciTegic.value.DoubleValue
267.481

@<SCITEGIC>MOL_PROPERTY
U
SciTegic.value.DoubleValue
353.362

@<SCITEGIC>MOL_PROPERTY
W
SciTegic.value.DoubleValue
-85.881

@<SCITEGIC>MOL_PROPERTY
W(PB)
SciTegic.value.DoubleValue
-91.849

@<SCITEGIC>MOL_PROPERTY
W(SA)
SciTegic.value.DoubleValue
5.968

@<SCITEGIC>MOL_PROPERTY
Valence
SciTegic.value.DoubleValue
147.859

@<SCITEGIC>MOL_PROPERTY
Coulomb
SciTegic.value.DoubleValue
229.825

@<SCITEGIC>MOL_PROPERTY
VdW
SciTegic.value.DoubleValue
-24.323

@<SCITEGIC>MOL_PROPERTY
VdW6
SciTegic.value.DoubleValue
-177.638

@<SCITEGIC>MOL_PROPERTY
VdW12
SciTegic.value.DoubleValue
153.315

@<SCITEGIC>MOL_PROPERTY
Bond
SciTegic.value.DoubleValue
4.663

@<SCITEGIC>MOL_PROPERTY
Angle
SciTegic.value.DoubleValue
12.834

@<SCITEGIC>MOL_PROPERTY
Pdih
SciTegic.value.DoubleValue
130.362

@<SCITEGIC>MOL_PROPERTY
Idih
SciTegic.value.DoubleValue
0.000

@<SCITEGIC>MOL_PROPERTY
Tether
SciTegic.value.DoubleValue
0.000

