@<TRIPOS>MOLECULE
CD_guest-s20_fast_vm2_rndm.mol2 : feprocess host+ligand conformer 1
         143         148           2
SMALL
USER_CHARGES
 
@<TRIPOS>ATOM
       1    C1      16.145926   15.093606   20.825468 C.3        1 MOL1         0.2972
       2    H1      15.097368   14.916802   20.553947 H          1 MOL1         0.0751
       3    O1      16.399121   16.482434   21.112560 O.3        1 MOL1        -0.3740
       4    C2      16.533070   14.265317   22.076730 C.3        1 MOL1         0.1003
       5    H2      16.394873   13.205855   21.824712 H          1 MOL1         0.0783
       6    O2      15.695857   14.593843   23.196871 O.3        1 MOL1        -0.5519
       7    H3      15.592864   15.579438   23.212585 H          1 MOL1         0.3769
       8    C3      18.024720   14.478745   22.429858 C.3        1 MOL1         0.1053
       9    H4      18.158640   15.524699   22.736569 H          1 MOL1         0.0783
      10    O3      18.393503   13.605647   23.504082 O.3        1 MOL1        -0.5519
      11    H5      17.668439   13.691798   24.162139 H          1 MOL1         0.3769
      12    C4      18.932442   14.210811   21.204887 C.3        1 MOL1         0.1018
      13    H6      18.960308   13.126583   21.034757 H          1 MOL1         0.0783
      14    C5      18.425465   14.936208   19.924035 C.3        1 MOL1         0.1043
      15    H7      18.592632   16.014087   20.049543 H          1 MOL1         0.0783
      16    O4      17.009112   14.688014   19.745077 O.3        1 MOL1        -0.3740
      17    C6      19.134275   14.493371   18.621126 C.3        1 MOL1         0.0138
      18    H8      20.140344   14.927702   18.600164 H          1 MOL1         0.0794
      19    H9      18.587314   14.915235   17.767352 H          1 MOL1         0.0794
      20    O5      19.214460   13.066716   18.503740 O.3        1 MOL1        -0.5486
      21    H10     19.642658   12.862994   17.644209 H          1 MOL1         0.3769
      22    C7      14.755042   20.262819   20.950181 C.3        1 MOL1         0.2972
      23    H11     14.128970   21.158568   20.850172 H          1 MOL1         0.0751
      24    O6      16.159645   20.606371   20.992607 O.3        1 MOL1        -0.3740
      25    C8      14.358612   19.441565   22.206664 C.3        1 MOL1         0.1003
      26    H12     13.337547   19.074681   22.038718 H          1 MOL1         0.0783
      27    O7      14.364148   20.229762   23.405425 O.3        1 MOL1        -0.5519
      28    H13     15.307010   20.480961   23.574277 H          1 MOL1         0.3769
      29    C9      15.284395   18.210218   22.343682 C.3        1 MOL1         0.1053
      30    H14     16.311728   18.561140   22.509602 H          1 MOL1         0.0783
      31    O8      14.858246   17.412721   23.453328 O.3        1 MOL1        -0.5519
      32    H15     14.687773   18.053745   24.178989 H          1 MOL1         0.3769
      33    C10     15.260465   17.363086   21.047706 C.3        1 MOL1         0.1018
      34    H16     14.312927   16.808962   21.026840 H          1 MOL1         0.0783
      35    C11     15.395160   18.217787   19.752098 C.3        1 MOL1         0.1043
      36    H17     16.436148   18.546357   19.657957 H          1 MOL1         0.0783
      37    O9      14.544090   19.391071   19.818505 O.3        1 MOL1        -0.3740
      38    C12     15.051433   17.432770   18.463857 C.3        1 MOL1         0.0138
      39    H18     15.842333   16.691300   18.287485 H          1 MOL1         0.0794
      40    H19     15.063367   18.129902   17.615410 H          1 MOL1         0.0794
      41    O10     13.780257   16.775938   18.552603 O.3        1 MOL1        -0.5486
      42    H20     13.610052   16.339983   17.689300 H          1 MOL1         0.3769
      43    C13     18.751802   23.722171   21.988291 C.3        1 MOL1         0.2972
      44    H21     19.190093   24.656877   22.355971 H          1 MOL1         0.0751
      45    O11     19.677046   22.976574   21.171040 O.3        1 MOL1        -0.3740
      46    C14     18.315304   22.829465   23.179417 C.3        1 MOL1         0.1003
      47    H22     17.557718   23.389171   23.742668 H          1 MOL1         0.0783
      48    O12     19.432012   22.566974   24.045963 O.3        1 MOL1        -0.5519
      49    H23     19.440143   21.599284   24.263599 H          1 MOL1         0.3769
      50    C15     17.651483   21.522614   22.672475 C.3        1 MOL1         0.1053
      51    H24     18.413378   20.924975   22.155227 H          1 MOL1         0.0783
      52    O13     17.123286   20.789899   23.784738 O.3        1 MOL1        -0.5519
      53    H25     17.905266   20.376148   24.236223 H          1 MOL1         0.3769
      54    C16     16.510215   21.835695   21.667166 C.3        1 MOL1         0.1018
      55    H26     15.660393   22.251163   22.224474 H          1 MOL1         0.0783
      56    C17     16.950354   22.848841   20.574720 C.3        1 MOL1         0.1043
      57    H27     17.671128   22.347509   19.915636 H          1 MOL1         0.0783
      58    O14     17.582019   24.000609   21.188724 O.3        1 MOL1        -0.3740
      59    C18     15.783668   23.346883   19.687920 C.3        1 MOL1         0.0138
      60    H28     15.459800   22.518957   19.042721 H          1 MOL1         0.0794
      61    H29     16.158453   24.144041   19.032077 H          1 MOL1         0.0794
      62    O15     14.675019   23.819636   20.464062 O.3        1 MOL1        -0.5486
      63    H30     14.012876   24.191733   19.841508 H          1 MOL1         0.3769
      64    C19     23.687441   22.710966   20.508322 C.3        1 MOL1         0.2972
      65    H31     24.742387   22.749777   20.207779 H          1 MOL1         0.0751
      66    O16     23.339013   21.428727   21.068740 O.3        1 MOL1        -0.3740
      67    C20     23.349214   23.825273   21.527313 C.3        1 MOL1         0.1003
      68    H32     23.497433   24.783314   21.012015 H          1 MOL1         0.0783
      69    O17     24.213908   23.779317   22.672601 O.3        1 MOL1        -0.5519
      70    H33     24.057460   22.908126   23.117767 H          1 MOL1         0.3769
      71    C21     21.863227   23.746824   21.959701 C.3        1 MOL1         0.1053
      72    H34     21.735822   22.849705   22.582268 H          1 MOL1         0.0783
      73    O18     21.569449   24.921174   22.724422 O.3        1 MOL1        -0.5519
      74    H35     22.264473   24.959556   23.417214 H          1 MOL1         0.3769
      75    C22     20.889399   23.633653   20.745680 C.3        1 MOL1         0.1018
      76    H36     20.679977   24.638640   20.359544 H          1 MOL1         0.0783
      77    C23     21.424296   22.733195   19.594778 C.3        1 MOL1         0.1043
      78    H37     21.270842   21.690334   19.897195 H          1 MOL1         0.0783
      79    O19     22.838783   22.943795   19.367326 O.3        1 MOL1        -0.3740
      80    C24     20.668985   22.920302   18.256180 C.3        1 MOL1         0.0138
      81    H38     19.645966   22.539176   18.374944 H          1 MOL1         0.0794
      82    H39     21.157945   22.300057   17.493340 H          1 MOL1         0.0794
      83    O20     20.632200   24.287338   17.826934 O.3        1 MOL1        -0.5486
      84    H40     20.004796   24.766431   18.408928 H          1 MOL1         0.3769
      85    C25     24.762688   17.864473   22.542244 C.3        1 MOL1         0.2972
      86    H41     25.341088   17.028244   22.955711 H          1 MOL1         0.0751
      87    O21     23.447100   17.435404   22.136054 O.3        1 MOL1        -0.3740
      88    C26     24.651586   18.992885   23.597961 C.3        1 MOL1         0.1003
      89    H42     25.670746   19.356926   23.781293 H          1 MOL1         0.0783
      90    O22     24.113247   18.507850   24.836396 O.3        1 MOL1        -0.5519
      91    H43     23.133097   18.386580   24.705415 H          1 MOL1         0.3769
      92    C27     23.821376   20.175288   23.049595 C.3        1 MOL1         0.1053
      93    H44     22.792533   19.829518   22.884131 H          1 MOL1         0.0783
      94    O23     23.823504   21.242392   24.003666 O.3        1 MOL1        -0.5519
      95    H45     23.473319   20.841675   24.831004 H          1 MOL1         0.3769
      96    C28     24.389914   20.669903   21.695972 C.3        1 MOL1         0.1018
      97    H46     25.285160   21.276810   21.885832 H          1 MOL1         0.0783
      98    C29     24.722137   19.507261   20.718295 C.3        1 MOL1         0.1043
      99    H47     23.764964   19.131089   20.343948 H          1 MOL1         0.0783
     100    O24     25.422761   18.421973   21.383934 O.3        1 MOL1        -0.3740
     101    C30     25.551968   19.951905   19.489931 C.3        1 MOL1         0.0138
     102    H48     24.914094   20.570012   18.843650 H          1 MOL1         0.0794
     103    H49     25.833690   19.061491   18.912124 H          1 MOL1         0.0794
     104    O25     26.720331   20.689619   19.868688 O.3        1 MOL1        -0.5486
     105    H50     27.237584   20.868604   19.053199 H          1 MOL1         0.3769
     106    C31     21.371622   13.959080   21.134102 C.3        1 MOL1         0.2972
     107    H51     21.078787   12.967156   20.766778 H          1 MOL1         0.0751
     108    O26     20.229495   14.728574   21.559081 O.3        1 MOL1        -0.3740
     109    C32     22.305783   13.822537   22.360348 C.3        1 MOL1         0.1003
     110    H52     23.170135   13.222625   22.047216 H          1 MOL1         0.0783
     111    O27     21.621258   13.149606   23.430329 O.3        1 MOL1        -0.5519
     112    H53     20.697493   13.502948   23.441927 H          1 MOL1         0.3769
     113    C33     22.831063   15.201093   22.841233 C.3        1 MOL1         0.1053
     114    H54     22.001193   15.739783   23.317462 H          1 MOL1         0.0783
     115    O28     23.875996   14.977557   23.793381 O.3        1 MOL1        -0.5519
     116    H55     23.493000   14.368116   24.461253 H          1 MOL1         0.3769
     117    C34     23.357297   16.072930   21.668230 C.3        1 MOL1         0.1018
     118    H56     24.337276   15.685550   21.360447 H          1 MOL1         0.0783
     119    C35     22.402775   16.056257   20.441065 C.3        1 MOL1         0.1043
     120    H57     21.480534   16.585038   20.705821 H          1 MOL1         0.0783
     121    O29     22.085221   14.686047   20.113762 O.3        1 MOL1        -0.3740
     122    C36     22.962493   16.736873   19.165741 C.3        1 MOL1         0.0138
     123    H58     22.665259   17.792368   19.176895 H          1 MOL1         0.0794
     124    H59     22.476224   16.289297   18.288801 H          1 MOL1         0.0794
     125    O30     24.386816   16.625747   19.043386 O.3        1 MOL1        -0.5486
     126    H60     24.788018   17.100393   19.807372 H          1 MOL1         0.3769
     127    C1      20.258258   18.890186   24.213281 C.2        1 MOL1         0.6132
     128    O1      19.572282   19.812721   24.612041 O.co2      1 MOL1        -0.6749
     129    O2      21.352954   18.612293   24.661808 O.co2      1 MOL1        -0.6749
     130    C2      19.720184   18.039552   23.072406 C.3        1 MOL1        -0.1955
     131    H1      18.630340   17.978701   23.170839 H          1 MOL1         0.0733
     132    H2      20.112557   17.026775   23.207863 H          1 MOL1         0.0733
     133    C3      20.120545   18.568216   21.709445 C.2        1 MOL1        -0.1395
     134    H3      21.180658   18.775494   21.578192 H          1 MOL1         0.0816
     135    C4      19.257889   18.783914   20.714829 C.2        1 MOL1        -0.1394
     136    H4      18.201309   18.582991   20.864587 H          1 MOL1         0.0816
     137    C5      19.638031   19.299941   19.346592 C.3        1 MOL1        -0.1826
     138    H5      19.035063   20.186340   19.110083 H          1 MOL1         0.0736
     139    H6      20.690343   19.610566   19.333714 H          1 MOL1         0.0736
     140    C6      19.418417   18.226783   18.263783 C.3        1 MOL1        -0.2882
     141    H7      18.371458   17.899051   18.241623 H          1 MOL1         0.0749
     142    H8      19.674192   18.619660   17.271503 H          1 MOL1         0.0749
     143    H9      20.049346   17.351191   18.455322 H          1 MOL1         0.0749
@<TRIPOS>BOND
    1     1     2    1
    2     1     3    1
    3     1     4    1
    4     4     5    1
    5     4     6    1
    6     6     7    1
    7     4     8    1
    8     8     9    1
    9     8    10    1
   10    10    11    1
   11     8    12    1
   12    12    13    1
   13    12    14    1
   14    14    15    1
   15     1    16    1
   16    14    16    1
   17    14    17    1
   18    17    18    1
   19    17    19    1
   20    17    20    1
   21    20    21    1
   22    22    23    1
   23    22    24    1
   24    22    25    1
   25    25    26    1
   26    25    27    1
   27    27    28    1
   28    25    29    1
   29    29    30    1
   30    29    31    1
   31    31    32    1
   32     3    33    1
   33    29    33    1
   34    33    34    1
   35    33    35    1
   36    35    36    1
   37    22    37    1
   38    35    37    1
   39    35    38    1
   40    38    39    1
   41    38    40    1
   42    38    41    1
   43    41    42    1
   44    43    44    1
   45    43    45    1
   46    43    46    1
   47    46    47    1
   48    46    48    1
   49    48    49    1
   50    46    50    1
   51    50    51    1
   52    50    52    1
   53    52    53    1
   54    24    54    1
   55    50    54    1
   56    54    55    1
   57    54    56    1
   58    56    57    1
   59    43    58    1
   60    56    58    1
   61    56    59    1
   62    59    60    1
   63    59    61    1
   64    59    62    1
   65    62    63    1
   66    64    65    1
   67    64    66    1
   68    64    67    1
   69    67    68    1
   70    67    69    1
   71    69    70    1
   72    67    71    1
   73    71    72    1
   74    71    73    1
   75    73    74    1
   76    45    75    1
   77    71    75    1
   78    75    76    1
   79    75    77    1
   80    77    78    1
   81    64    79    1
   82    77    79    1
   83    77    80    1
   84    80    81    1
   85    80    82    1
   86    80    83    1
   87    83    84    1
   88    85    86    1
   89    85    87    1
   90    85    88    1
   91    88    89    1
   92    88    90    1
   93    90    91    1
   94    88    92    1
   95    92    93    1
   96    92    94    1
   97    94    95    1
   98    66    96    1
   99    92    96    1
  100    96    97    1
  101    96    98    1
  102    98    99    1
  103    85   100    1
  104    98   100    1
  105    98   101    1
  106   101   102    1
  107   101   103    1
  108   101   104    1
  109   104   105    1
  110   106   107    1
  111    12   108    1
  112   106   108    1
  113   106   109    1
  114   109   110    1
  115   109   111    1
  116   111   112    1
  117   109   113    1
  118   113   114    1
  119   113   115    1
  120   115   116    1
  121    87   117    1
  122   113   117    1
  123   117   118    1
  124   117   119    1
  125   119   120    1
  126   106   121    1
  127   119   121    1
  128   119   122    1
  129   122   123    1
  130   122   124    1
  131   122   125    1
  132   125   126    1
  133   127   128    1
  134   127   129    2
  135   127   130    1
  136   130   131    1
  137   130   132    1
  138   130   133    1
  139   133   134    1
  140   133   135    2
  141   135   136    1
  142   135   137    1
  143   137   138    1
  144   137   139    1
  145   137   140    1
  146   140   141    1
  147   140   142    1
  148   140   143    1
@<TRIPOS>SUBSTRUCTURE
       1 MOL1            1 RESIDUE      1      MOL     
       2 MOL1          143 RESIDUE      1      MOL     
@<SCITEGIC>MOL_PROPERTY
feprocess Rank
SciTegic.value.IntegerValue
1

@<SCITEGIC>MOL_PROPERTY
Conf_Id
SciTegic.value.IntegerValue
977

@<SCITEGIC>MOL_PROPERTY
Probability
SciTegic.value.DoubleValue
70.72

@<SCITEGIC>MOL_PROPERTY
G
SciTegic.value.DoubleValue
497.819

@<SCITEGIC>MOL_PROPERTY
E
SciTegic.value.DoubleValue
314.123

@<SCITEGIC>MOL_PROPERTY
-TS
SciTegic.value.DoubleValue
183.697

@<SCITEGIC>MOL_PROPERTY
U+W
SciTegic.value.DoubleValue
188.034

@<SCITEGIC>MOL_PROPERTY
U
SciTegic.value.DoubleValue
260.235

@<SCITEGIC>MOL_PROPERTY
W
SciTegic.value.DoubleValue
-72.197

@<SCITEGIC>MOL_PROPERTY
W(PB)
SciTegic.value.DoubleValue
-78.183

@<SCITEGIC>MOL_PROPERTY
W(SA)
SciTegic.value.DoubleValue
5.986

@<SCITEGIC>MOL_PROPERTY
Valence
SciTegic.value.DoubleValue
157.956

@<SCITEGIC>MOL_PROPERTY
Coulomb
SciTegic.value.DoubleValue
126.207

@<SCITEGIC>MOL_PROPERTY
VdW
SciTegic.value.DoubleValue
-23.929

@<SCITEGIC>MOL_PROPERTY
VdW6
SciTegic.value.DoubleValue
-181.409

@<SCITEGIC>MOL_PROPERTY
VdW12
SciTegic.value.DoubleValue
157.480

@<SCITEGIC>MOL_PROPERTY
Bond
SciTegic.value.DoubleValue
5.009

@<SCITEGIC>MOL_PROPERTY
Angle
SciTegic.value.DoubleValue
14.116

@<SCITEGIC>MOL_PROPERTY
Pdih
SciTegic.value.DoubleValue
138.831

@<SCITEGIC>MOL_PROPERTY
Idih
SciTegic.value.DoubleValue
0.000

@<SCITEGIC>MOL_PROPERTY
Tether
SciTegic.value.DoubleValue
0.000

