@<TRIPOS>MOLECULE
CD_guest-3_fast_vm2_rndm.mol2 : feprocess host+ligand conformer 1
         155         160           2
SMALL
USER_CHARGES
 
@<TRIPOS>ATOM
       1    C1      16.387105   15.325380   21.827396 C.3        1 MOL1         0.2972
       2    H1      15.340090   15.185588   22.124639 H          1 MOL1         0.0751
       3    O1      16.605262   16.627019   21.245416 O.3        1 MOL1        -0.3740
       4    C2      17.323665   15.155455   23.051667 C.3        1 MOL1         0.1003
       5    H2      17.177922   14.135174   23.429892 H          1 MOL1         0.0783
       6    O2      17.014032   16.091482   24.095974 O.3        1 MOL1        -0.5519
       7    H3      16.088055   16.398334   23.944990 H          1 MOL1         0.3769
       8    C3      18.802914   15.307195   22.632431 C.3        1 MOL1         0.1053
       9    H4      18.957914   16.341651   22.304327 H          1 MOL1         0.0783
      10    O3      19.632558   15.031344   23.764310 O.3        1 MOL1        -0.5519
      11    H5      19.203829   15.520928   24.502397 H          1 MOL1         0.3769
      12    C4      19.154202   14.371181   21.448997 C.3        1 MOL1         0.1018
      13    H6      19.225215   13.341108   21.822664 H          1 MOL1         0.0783
      14    C5      18.100588   14.447033   20.308209 C.3        1 MOL1         0.1043
      15    H7      18.204439   15.421752   19.813638 H          1 MOL1         0.0783
      16    O4      16.761142   14.330862   20.850889 O.3        1 MOL1        -0.3740
      17    C6      18.285222   13.359049   19.223173 C.3        1 MOL1         0.0138
      18    H8      19.186031   13.597071   18.641399 H          1 MOL1         0.0794
      19    H9      17.431016   13.403159   18.534309 H          1 MOL1         0.0794
      20    O5      18.404231   12.046614   19.786785 O.3        1 MOL1        -0.5486
      21    H10     18.433188   11.404664   19.044036 H          1 MOL1         0.3769
      22    C7      14.637415   20.276910   20.982649 C.3        1 MOL1         0.2972
      23    H11     13.933221   21.096150   20.792576 H          1 MOL1         0.0751
      24    O6      15.933215   20.757781   21.385042 O.3        1 MOL1        -0.3740
      25    C8      14.108874   19.357082   22.109399 C.3        1 MOL1         0.1003
      26    H12     13.148767   18.944936   21.772424 H          1 MOL1         0.0783
      27    O7      13.902837   20.098149   23.322737 O.3        1 MOL1        -0.5519
      28    H13     14.674864   20.709174   23.433431 H          1 MOL1         0.3769
      29    C9      15.075435   18.172619   22.357253 C.3        1 MOL1         0.1053
      30    H14     16.002957   18.575609   22.786421 H          1 MOL1         0.0783
      31    O8      14.460772   17.275541   23.288495 O.3        1 MOL1        -0.5519
      32    H15     14.033814   17.860255   23.955816 H          1 MOL1         0.3769
      33    C10     15.434655   17.441618   21.030879 C.3        1 MOL1         0.1018
      34    H16     14.582613   16.834379   20.697250 H          1 MOL1         0.0783
      35    C11     15.812597   18.433876   19.899856 C.3        1 MOL1         0.1043
      36    H17     16.787422   18.877614   20.134187 H          1 MOL1         0.0783
      37    O9      14.804446   19.468742   19.800567 O.3        1 MOL1        -0.3740
      38    C12     15.920636   17.743300   18.525396 C.3        1 MOL1         0.0138
      39    H18     14.931862   17.371827   18.224552 H          1 MOL1         0.0794
      40    H19     16.591356   16.877791   18.607259 H          1 MOL1         0.0794
      41    O10     16.429865   18.665579   17.559809 O.3        1 MOL1        -0.5486
      42    H20     15.784497   19.405914   17.530280 H          1 MOL1         0.3769
      43    C13     18.349894   24.080465   21.629198 C.3        1 MOL1         0.2972
      44    H21     18.783730   25.087736   21.672314 H          1 MOL1         0.0751
      45    O11     19.366221   23.058844   21.623993 O.3        1 MOL1        -0.3740
      46    C14     17.444233   23.851249   22.862074 C.3        1 MOL1         0.1003
      47    H22     16.639070   24.596739   22.829212 H          1 MOL1         0.0783
      48    O12     18.196363   24.012833   24.075475 O.3        1 MOL1        -0.5519
      49    H23     19.144162   23.831842   23.855591 H          1 MOL1         0.3769
      50    C15     16.803817   22.447161   22.809129 C.3        1 MOL1         0.1053
      51    H24     17.606575   21.711694   22.931818 H          1 MOL1         0.0783
      52    O13     15.858853   22.306139   23.874099 O.3        1 MOL1        -0.5519
      53    H25     16.312206   22.674533   24.665127 H          1 MOL1         0.3769
      54    C16     16.113019   22.182996   21.449447 C.3        1 MOL1         0.1018
      55    H26     15.160498   22.728076   21.430281 H          1 MOL1         0.0783
      56    C17     16.995276   22.593776   20.236203 C.3        1 MOL1         0.1043
      57    H27     17.814420   21.868092   20.162774 H          1 MOL1         0.0783
      58    O14     17.552087   23.917782   20.438887 O.3        1 MOL1        -0.3740
      59    C18     16.255799   22.577940   18.876524 C.3        1 MOL1         0.0138
      60    H28     16.036173   21.537389   18.604093 H          1 MOL1         0.0794
      61    H29     16.934999   22.974020   18.109908 H          1 MOL1         0.0794
      62    O15     15.046653   23.346250   18.898018 O.3        1 MOL1        -0.5486
      63    H30     14.346225   22.798689   19.308540 H          1 MOL1         0.3769
      64    C19     23.452149   22.593497   20.873860 C.3        1 MOL1         0.2972
      65    H31     24.494831   22.761201   20.575232 H          1 MOL1         0.0751
      66    O16     23.205978   21.200112   21.154033 O.3        1 MOL1        -0.3740
      67    C20     23.078286   23.457906   22.112823 C.3        1 MOL1         0.1003
      68    H32     23.209506   24.507793   21.820124 H          1 MOL1         0.0783
      69    O17     23.922019   23.188768   23.242270 O.3        1 MOL1        -0.5519
      70    H33     23.760376   22.247817   23.505844 H          1 MOL1         0.3769
      71    C21     21.591120   23.255699   22.490219 C.3        1 MOL1         0.1053
      72    H34     21.454160   22.216127   22.819142 H          1 MOL1         0.0783
      73    O18     21.232219   24.152848   23.546781 O.3        1 MOL1        -0.5519
      74    H35     21.974225   24.103619   24.189816 H          1 MOL1         0.3769
      75    C22     20.684869   23.503554   21.261996 C.3        1 MOL1         0.1018
      76    H36     20.710629   24.575195   21.024068 H          1 MOL1         0.0783
      77    C23     21.156705   22.699033   20.021032 C.3        1 MOL1         0.1043
      78    H37     21.022091   21.632748   20.232964 H          1 MOL1         0.0783
      79    O19     22.563304   22.971142   19.797039 O.3        1 MOL1        -0.3740
      80    C24     20.377017   22.997841   18.714147 C.3        1 MOL1         0.0138
      81    H38     19.502533   22.337518   18.670109 H          1 MOL1         0.0794
      82    H39     21.015367   22.736217   17.859740 H          1 MOL1         0.0794
      83    O20     19.948161   24.359998   18.608643 O.3        1 MOL1        -0.5486
      84    H40     19.133396   24.447872   19.155822 H          1 MOL1         0.3769
      85    C25     24.946500   17.582116   22.036290 C.3        1 MOL1         0.2972
      86    H41     25.579165   16.731428   22.320770 H          1 MOL1         0.0751
      87    O21     23.735450   17.155424   21.380319 O.3        1 MOL1        -0.3740
      88    C26     24.577125   18.425176   23.283285 C.3        1 MOL1         0.1003
      89    H42     25.512285   18.825660   23.696085 H          1 MOL1         0.0783
      90    O22     23.915150   17.639982   24.287994 O.3        1 MOL1        -0.5519
      91    H43     23.931092   16.699494   23.985348 H          1 MOL1         0.3769
      92    C27     23.679538   19.613213   22.878934 C.3        1 MOL1         0.1053
      93    H44     22.726451   19.196816   22.533856 H          1 MOL1         0.0783
      94    O23     23.455907   20.441701   24.023723 O.3        1 MOL1        -0.5519
      95    H45     23.269027   19.806315   24.751383 H          1 MOL1         0.3769
      96    C28     24.292727   20.439401   21.719647 C.3        1 MOL1         0.1018
      97    H46     25.082834   21.083481   22.127233 H          1 MOL1         0.0783
      98    C29     24.870488   19.551093   20.579022 C.3        1 MOL1         0.1043
      99    H47     24.025721   19.141052   20.010497 H          1 MOL1         0.0783
     100    O24     25.648190   18.454183   21.125873 O.3        1 MOL1        -0.3740
     101    C30     25.755624   20.327486   19.574851 C.3        1 MOL1         0.0138
     102    H48     25.108842   20.977468   18.970230 H          1 MOL1         0.0794
     103    H49     26.223443   19.606670   18.890892 H          1 MOL1         0.0794
     104    O25     26.757625   21.114105   20.230953 O.3        1 MOL1        -0.5486
     105    H50     27.331248   21.506306   19.536816 H          1 MOL1         0.3769
     106    C31     21.419863   13.839838   20.653939 C.3        1 MOL1         0.2972
     107    H51     20.977945   12.876283   20.369586 H          1 MOL1         0.0751
     108    O26     20.402986   14.836607   20.899136 O.3        1 MOL1        -0.3740
     109    C32     22.332226   13.693801   21.901000 C.3        1 MOL1         0.1003
     110    H52     23.160947   13.033012   21.614695 H          1 MOL1         0.0783
     111    O27     21.642637   13.108955   23.015227 O.3        1 MOL1        -0.5519
     112    H53     20.937913   13.750914   23.284252 H          1 MOL1         0.3769
     113    C33     22.933008   15.064290   22.294600 C.3        1 MOL1         0.1053
     114    H54     22.112957   15.711431   22.636334 H          1 MOL1         0.0783
     115    O28     23.874719   14.871527   23.355251 O.3        1 MOL1        -0.5519
     116    H55     23.456280   14.208302   23.950189 H          1 MOL1         0.3769
     117    C34     23.620516   15.751973   21.083994 C.3        1 MOL1         0.1018
     118    H56     24.601839   15.290123   20.917183 H          1 MOL1         0.0783
     119    C35     22.786528   15.665212   19.775263 C.3        1 MOL1         0.1043
     120    H57     21.946687   16.363250   19.864415 H          1 MOL1         0.0783
     121    O29     22.262326   14.328047   19.589200 O.3        1 MOL1        -0.3740
     122    C36     23.574766   16.076568   18.506972 C.3        1 MOL1         0.0138
     123    H58     23.736374   17.162487   18.531640 H          1 MOL1         0.0794
     124    H59     22.953234   15.861633   17.627608 H          1 MOL1         0.0794
     125    O30     24.834393   15.403656   18.392304 O.3        1 MOL1        -0.5486
     126    H60     25.454100   15.822223   19.027451 H          1 MOL1         0.3769
     127    C1      19.506817   19.049488   25.886788 C.3        1 MOL1        -0.2427
     128    H1      20.337998   19.748258   26.048181 H          1 MOL1         0.0958
     129    H2      18.769780   19.209021   26.684183 H          1 MOL1         0.0958
     130    H3      19.894881   18.027202   25.984872 H          1 MOL1         0.0958
     131    C2      18.864283   19.265240   24.501302 C.3        1 MOL1        -0.1412
     132    H4      18.457305   20.282924   24.445772 H          1 MOL1         0.0947
     133    H5      18.017398   18.576575   24.381546 H          1 MOL1         0.0947
     134    C3      19.885779   19.043368   23.366286 C.3        1 MOL1        -0.1437
     135    H6      20.706115   19.764447   23.476365 H          1 MOL1         0.0947
     136    H7      20.326471   18.041271   23.464013 H          1 MOL1         0.0947
     137    C4      19.250438   19.197418   21.967110 C.3        1 MOL1        -0.1437
     138    H8      18.897227   20.227928   21.838045 H          1 MOL1         0.0947
     139    H9      18.370897   18.546913   21.887604 H          1 MOL1         0.0947
     140    C5      20.255578   18.851740   20.848036 C.3        1 MOL1        -0.1437
     141    H10     21.143025   19.486005   20.956765 H          1 MOL1         0.0947
     142    H11     20.594400   17.814066   20.966883 H          1 MOL1         0.0947
     143    C6      19.652404   19.046132   19.439594 C.3        1 MOL1        -0.1437
     144    H12     19.175345   20.032377   19.376449 H          1 MOL1         0.0947
     145    H13     18.864829   18.299027   19.276712 H          1 MOL1         0.0947
     146    C7      20.728375   18.925599   18.336346 C.3        1 MOL1        -0.1477
     147    H14     21.567443   19.595679   18.568136 H          1 MOL1         0.0947
     148    H15     21.133716   17.906906   18.321105 H          1 MOL1         0.0947
     149    C8      20.195822   19.284494   16.936506 C.3        1 MOL1         0.0145
     150    H16     21.017763   19.236758   16.217183 H          1 MOL1         0.0921
     151    H17     19.803689   20.304868   16.938908 H          1 MOL1         0.0921
     152    N1      19.100280   18.363574   16.438667 N.4        1 MOL1        -0.5969
     153    H18     19.385506   17.380318   16.456920 H          1 MOL1         0.3603
     154    H19     18.830616   18.583152   15.474429 H          1 MOL1         0.3603
     155    H20     18.237209   18.446054   17.002619 H          1 MOL1         0.3603
@<TRIPOS>BOND
    1     1     2    1
    2     1     3    1
    3     1     4    1
    4     4     5    1
    5     4     6    1
    6     6     7    1
    7     4     8    1
    8     8     9    1
    9     8    10    1
   10    10    11    1
   11     8    12    1
   12    12    13    1
   13    12    14    1
   14    14    15    1
   15     1    16    1
   16    14    16    1
   17    14    17    1
   18    17    18    1
   19    17    19    1
   20    17    20    1
   21    20    21    1
   22    22    23    1
   23    22    24    1
   24    22    25    1
   25    25    26    1
   26    25    27    1
   27    27    28    1
   28    25    29    1
   29    29    30    1
   30    29    31    1
   31    31    32    1
   32     3    33    1
   33    29    33    1
   34    33    34    1
   35    33    35    1
   36    35    36    1
   37    22    37    1
   38    35    37    1
   39    35    38    1
   40    38    39    1
   41    38    40    1
   42    38    41    1
   43    41    42    1
   44    43    44    1
   45    43    45    1
   46    43    46    1
   47    46    47    1
   48    46    48    1
   49    48    49    1
   50    46    50    1
   51    50    51    1
   52    50    52    1
   53    52    53    1
   54    24    54    1
   55    50    54    1
   56    54    55    1
   57    54    56    1
   58    56    57    1
   59    43    58    1
   60    56    58    1
   61    56    59    1
   62    59    60    1
   63    59    61    1
   64    59    62    1
   65    62    63    1
   66    64    65    1
   67    64    66    1
   68    64    67    1
   69    67    68    1
   70    67    69    1
   71    69    70    1
   72    67    71    1
   73    71    72    1
   74    71    73    1
   75    73    74    1
   76    45    75    1
   77    71    75    1
   78    75    76    1
   79    75    77    1
   80    77    78    1
   81    64    79    1
   82    77    79    1
   83    77    80    1
   84    80    81    1
   85    80    82    1
   86    80    83    1
   87    83    84    1
   88    85    86    1
   89    85    87    1
   90    85    88    1
   91    88    89    1
   92    88    90    1
   93    90    91    1
   94    88    92    1
   95    92    93    1
   96    92    94    1
   97    94    95    1
   98    66    96    1
   99    92    96    1
  100    96    97    1
  101    96    98    1
  102    98    99    1
  103    85   100    1
  104    98   100    1
  105    98   101    1
  106   101   102    1
  107   101   103    1
  108   101   104    1
  109   104   105    1
  110   106   107    1
  111    12   108    1
  112   106   108    1
  113   106   109    1
  114   109   110    1
  115   109   111    1
  116   111   112    1
  117   109   113    1
  118   113   114    1
  119   113   115    1
  120   115   116    1
  121    87   117    1
  122   113   117    1
  123   117   118    1
  124   117   119    1
  125   119   120    1
  126   106   121    1
  127   119   121    1
  128   119   122    1
  129   122   123    1
  130   122   124    1
  131   122   125    1
  132   125   126    1
  133   127   128    1
  134   127   129    1
  135   127   130    1
  136   127   131    1
  137   131   132    1
  138   131   133    1
  139   131   134    1
  140   134   135    1
  141   134   136    1
  142   134   137    1
  143   137   138    1
  144   137   139    1
  145   137   140    1
  146   140   141    1
  147   140   142    1
  148   140   143    1
  149   143   144    1
  150   143   145    1
  151   143   146    1
  152   146   147    1
  153   146   148    1
  154   146   149    1
  155   149   150    1
  156   149   151    1
  157   149   152    1
  158   152   153    1
  159   152   154    1
  160   152   155    1
@<TRIPOS>SUBSTRUCTURE
       1 MOL1            1 RESIDUE      1      MOL     
       2 MOL1          155 RESIDUE      1      MOL     
@<SCITEGIC>MOL_PROPERTY
feprocess Rank
SciTegic.value.IntegerValue
1

@<SCITEGIC>MOL_PROPERTY
Conf_Id
SciTegic.value.IntegerValue
744

@<SCITEGIC>MOL_PROPERTY
Probability
SciTegic.value.DoubleValue
43.46

@<SCITEGIC>MOL_PROPERTY
G
SciTegic.value.DoubleValue
583.810

@<SCITEGIC>MOL_PROPERTY
E
SciTegic.value.DoubleValue
376.080

@<SCITEGIC>MOL_PROPERTY
-TS
SciTegic.value.DoubleValue
207.730

@<SCITEGIC>MOL_PROPERTY
U+W
SciTegic.value.DoubleValue
239.261

@<SCITEGIC>MOL_PROPERTY
U
SciTegic.value.DoubleValue
320.213

@<SCITEGIC>MOL_PROPERTY
W
SciTegic.value.DoubleValue
-80.952

@<SCITEGIC>MOL_PROPERTY
W(PB)
SciTegic.value.DoubleValue
-87.096

@<SCITEGIC>MOL_PROPERTY
W(SA)
SciTegic.value.DoubleValue
6.144

@<SCITEGIC>MOL_PROPERTY
Valence
SciTegic.value.DoubleValue
148.047

@<SCITEGIC>MOL_PROPERTY
Coulomb
SciTegic.value.DoubleValue
199.755

@<SCITEGIC>MOL_PROPERTY
VdW
SciTegic.value.DoubleValue
-27.589

@<SCITEGIC>MOL_PROPERTY
VdW6
SciTegic.value.DoubleValue
-184.295

@<SCITEGIC>MOL_PROPERTY
VdW12
SciTegic.value.DoubleValue
156.705

@<SCITEGIC>MOL_PROPERTY
Bond
SciTegic.value.DoubleValue
4.483

@<SCITEGIC>MOL_PROPERTY
Angle
SciTegic.value.DoubleValue
11.447

@<SCITEGIC>MOL_PROPERTY
Pdih
SciTegic.value.DoubleValue
132.117

@<SCITEGIC>MOL_PROPERTY
Idih
SciTegic.value.DoubleValue
0.000

@<SCITEGIC>MOL_PROPERTY
Tether
SciTegic.value.DoubleValue
0.000

@<TRIPOS>MOLECULE
CD_guest-3_fast_vm2_rndm.mol2 : feprocess host+ligand conformer 2
         155         160           2
SMALL
USER_CHARGES
 
@<TRIPOS>ATOM
       1    C1      16.335927   15.315332   20.235437 C.3        1 MOL1         0.2972
       2    H1      15.341005   15.165692   19.796476 H          1 MOL1         0.0751
       3    O1      16.486079   16.644424   20.774562 O.3        1 MOL1        -0.3740
       4    C2      16.598355   14.292390   21.370215 C.3        1 MOL1         0.1003
       5    H2      16.543967   13.290373   20.924980 H          1 MOL1         0.0783
       6    O2      15.611965   14.397463   22.409398 O.3        1 MOL1        -0.5519
       7    H3      15.556394   15.350561   22.674975 H          1 MOL1         0.3769
       8    C3      18.019737   14.477051   21.954420 C.3        1 MOL1         0.1053
       9    H4      18.055171   15.457719   22.444618 H          1 MOL1         0.0783
      10    O3      18.267210   13.446134   22.916822 O.3        1 MOL1        -0.5519
      11    H5      17.418371   13.348664   23.405619 H          1 MOL1         0.3769
      12    C4      19.096935   14.461379   20.835454 C.3        1 MOL1         0.1018
      13    H6      19.233245   13.435068   20.469557 H          1 MOL1         0.0783
      14    C5      18.711970   15.374921   19.639424 C.3        1 MOL1         0.1043
      15    H7      18.798464   16.419329   19.961576 H          1 MOL1         0.0783
      16    O4      17.347652   15.120606   19.227510 O.3        1 MOL1        -0.3740
      17    C6      19.633338   15.188243   18.410236 C.3        1 MOL1         0.0138
      18    H8      20.636004   15.553681   18.667608 H          1 MOL1         0.0794
      19    H9      19.255204   15.813905   17.591073 H          1 MOL1         0.0794
      20    O5      19.709452   13.818976   17.994129 O.3        1 MOL1        -0.5486
      21    H10     20.279984   13.779462   17.196377 H          1 MOL1         0.3769
      22    C7      14.581940   20.245626   21.224227 C.3        1 MOL1         0.2972
      23    H11     13.917186   21.116841   21.287273 H          1 MOL1         0.0751
      24    O6      15.974626   20.638302   21.189663 O.3        1 MOL1        -0.3740
      25    C8      14.340424   19.264917   22.401088 C.3        1 MOL1         0.1003
      26    H12     13.329251   18.855158   22.278040 H          1 MOL1         0.0783
      27    O7      14.416644   19.915592   23.676792 O.3        1 MOL1        -0.5519
      28    H13     15.330417   20.287390   23.759218 H          1 MOL1         0.3769
      29    C9      15.341446   18.089212   22.312807 C.3        1 MOL1         0.1053
      30    H14     16.352432   18.491295   22.448045 H          1 MOL1         0.0783
      31    O8      15.061851   17.138832   23.345512 O.3        1 MOL1        -0.5519
      32    H15     14.876765   17.678328   24.146266 H          1 MOL1         0.3769
      33    C10     15.267371   17.399509   20.926235 C.3        1 MOL1         0.1018
      34    H16     14.381121   16.750995   20.921865 H          1 MOL1         0.0783
      35    C11     15.195518   18.400229   19.732917 C.3        1 MOL1         0.1043
      36    H17     16.196769   18.811307   19.571760 H          1 MOL1         0.0783
      37    O9      14.296074   19.498813   20.023520 O.3        1 MOL1        -0.3740
      38    C12     14.759131   17.745789   18.400293 C.3        1 MOL1         0.0138
      39    H18     14.614299   18.537304   17.652847 H          1 MOL1         0.0794
      40    H19     15.576621   17.105510   18.041969 H          1 MOL1         0.0794
      41    O10     13.561908   16.971347   18.544176 O.3        1 MOL1        -0.5486
      42    H20     13.303503   16.653518   17.651509 H          1 MOL1         0.3769
      43    C13     18.572630   23.794984   21.975027 C.3        1 MOL1         0.2972
      44    H21     19.017513   24.751386   22.275704 H          1 MOL1         0.0751
      45    O11     19.486867   23.008013   21.181277 O.3        1 MOL1        -0.3740
      46    C14     18.153264   22.970486   23.220324 C.3        1 MOL1         0.1003
      47    H22     17.413485   23.567608   23.769466 H          1 MOL1         0.0783
      48    O12     19.265542   22.688062   24.085294 O.3        1 MOL1        -0.5519
      49    H23     19.927815   23.406240   23.945824 H          1 MOL1         0.3769
      50    C15     17.483798   21.647384   22.789611 C.3        1 MOL1         0.1053
      51    H24     18.238262   21.046830   22.269032 H          1 MOL1         0.0783
      52    O13     17.040490   20.964329   23.963626 O.3        1 MOL1        -0.5519
      53    H25     17.780004   21.082411   24.601750 H          1 MOL1         0.3769
      54    C16     16.309072   21.897845   21.810901 C.3        1 MOL1         0.1018
      55    H26     15.464627   22.315002   22.375614 H          1 MOL1         0.0783
      56    C17     16.711305   22.867907   20.664245 C.3        1 MOL1         0.1043
      57    H27     17.402713   22.339954   19.995113 H          1 MOL1         0.0783
      58    O14     17.378998   24.037817   21.199256 O.3        1 MOL1        -0.3740
      59    C18     15.509184   23.335928   19.809373 C.3        1 MOL1         0.0138
      60    H28     15.155281   22.484594   19.212068 H          1 MOL1         0.0794
      61    H29     15.856891   24.105743   19.107480 H          1 MOL1         0.0794
      62    O15     14.436651   23.842026   20.614597 O.3        1 MOL1        -0.5486
      63    H30     13.744704   24.184528   20.007554 H          1 MOL1         0.3769
      64    C19     23.598791   22.727193   20.674064 C.3        1 MOL1         0.2972
      65    H31     24.653965   22.864561   20.405011 H          1 MOL1         0.0751
      66    O16     23.333469   21.388702   21.148156 O.3        1 MOL1        -0.3740
      67    C20     23.177331   23.727473   21.776639 C.3        1 MOL1         0.1003
      68    H32     23.284886   24.736945   21.358451 H          1 MOL1         0.0783
      69    O17     24.012735   23.615762   22.939228 O.3        1 MOL1        -0.5519
      70    H33     24.096189   22.652496   23.156762 H          1 MOL1         0.3769
      71    C21     21.688851   23.525990   22.149967 C.3        1 MOL1         0.1053
      72    H34     21.581946   22.527869   22.596632 H          1 MOL1         0.0783
      73    O18     21.330977   24.527480   23.109446 O.3        1 MOL1        -0.5519
      74    H35     22.126494   24.617715   23.683395 H          1 MOL1         0.3769
      75    C22     20.776230   23.595180   20.888410 C.3        1 MOL1         0.1018
      76    H36     20.668764   24.641471   20.573689 H          1 MOL1         0.0783
      77    C23     21.345747   22.763936   19.703615 C.3        1 MOL1         0.1043
      78    H37     21.190129   21.706070   19.933084 H          1 MOL1         0.0783
      79    O19     22.764735   22.992017   19.528612 O.3        1 MOL1        -0.3740
      80    C24     20.634319   23.052168   18.360285 C.3        1 MOL1         0.0138
      81    H38     19.594486   22.706960   18.435843 H          1 MOL1         0.0794
      82    H39     21.120356   22.461243   17.572633 H          1 MOL1         0.0794
      83    O20     20.659858   24.445212   18.024642 O.3        1 MOL1        -0.5486
      84    H40     20.224574   24.550297   17.150940 H          1 MOL1         0.3769
      85    C25     25.121590   17.701130   21.776523 C.3        1 MOL1         0.2972
      86    H41     25.802307   16.845823   21.876002 H          1 MOL1         0.0751
      87    O21     23.738646   17.291191   21.790123 O.3        1 MOL1        -0.3740
      88    C26     25.337444   18.720706   22.923625 C.3        1 MOL1         0.1003
      89    H42     26.365512   19.095932   22.836728 H          1 MOL1         0.0783
      90    O22     25.173202   18.107871   24.211635 O.3        1 MOL1        -0.5519
      91    H43     24.321283   17.602312   24.195411 H          1 MOL1         0.3769
      92    C27     24.377555   19.925512   22.765922 C.3        1 MOL1         0.1053
      93    H44     23.350981   19.568971   22.913511 H          1 MOL1         0.0783
      94    O23     24.688870   20.905422   23.759773 O.3        1 MOL1        -0.5519
      95    H45     24.811551   20.393722   24.590825 H          1 MOL1         0.3769
      96    C28     24.489479   20.548316   21.349562 C.3        1 MOL1         0.1018
      97    H46     25.426041   21.119743   21.305086 H          1 MOL1         0.0783
      98    C29     24.476793   19.481361   20.218692 C.3        1 MOL1         0.1043
      99    H47     23.459164   19.082642   20.134873 H          1 MOL1         0.0783
     100    O24     25.378304   18.393037   20.536544 O.3        1 MOL1        -0.3740
     101    C30     24.863269   20.052437   18.833257 C.3        1 MOL1         0.0138
     102    H48     24.049513   20.703386   18.485817 H          1 MOL1         0.0794
     103    H49     24.943201   19.220603   18.120754 H          1 MOL1         0.0794
     104    O25     26.090403   20.791908   18.876526 O.3        1 MOL1        -0.5486
     105    H50     26.297790   21.078311   17.960417 H          1 MOL1         0.3769
     106    C31     21.211328   14.037883   21.993357 C.3        1 MOL1         0.2972
     107    H51     20.734834   13.055686   22.106747 H          1 MOL1         0.0751
     108    O26     20.321790   14.994036   21.379579 O.3        1 MOL1        -0.3740
     109    C32     21.661715   14.579367   23.374074 C.3        1 MOL1         0.1003
     110    H52     22.405323   13.873565   23.766908 H          1 MOL1         0.0783
     111    O27     20.566001   14.671051   24.301812 O.3        1 MOL1        -0.5519
     112    H53     19.805033   14.191412   23.889948 H          1 MOL1         0.3769
     113    C33     22.342005   15.957834   23.214938 C.3        1 MOL1         0.1053
     114    H54     21.582666   16.663711   22.863929 H          1 MOL1         0.0783
     115    O28     22.853080   16.376719   24.485172 O.3        1 MOL1        -0.5519
     116    H55     22.435349   15.767474   25.131316 H          1 MOL1         0.3769
     117    C34     23.475771   15.922856   22.160422 C.3        1 MOL1         0.1018
     118    H56     24.352595   15.439239   22.610887 H          1 MOL1         0.0783
     119    C35     23.063749   15.176814   20.859302 C.3        1 MOL1         0.1043
     120    H57     22.371355   15.822414   20.303928 H          1 MOL1         0.0783
     121    O29     22.394114   13.929452   21.173624 O.3        1 MOL1        -0.3740
     122    C36     24.257581   14.872698   19.922927 C.3        1 MOL1         0.0138
     123    H58     24.609221   15.818698   19.489187 H          1 MOL1         0.0794
     124    H59     23.901920   14.245542   19.094468 H          1 MOL1         0.0794
     125    O30     25.334913   14.225415   20.612185 O.3        1 MOL1        -0.5486
     126    H60     26.025761   14.009499   19.948394 H          1 MOL1         0.3769
     127    C1      19.144123   19.363258   17.756745 C.3        1 MOL1        -0.2427
     128    H1      19.929489   19.992258   17.318446 H          1 MOL1         0.0958
     129    H2      19.311115   18.329779   17.428114 H          1 MOL1         0.0958
     130    H3      18.179939   19.694587   17.349987 H          1 MOL1         0.0958
     131    C2      19.146927   19.462303   19.295508 C.3        1 MOL1        -0.1412
     132    H4      18.334296   18.845223   19.693941 H          1 MOL1         0.0947
     133    H5      18.939455   20.497356   19.599180 H          1 MOL1         0.0947
     134    C3      20.487777   18.995795   19.902282 C.3        1 MOL1        -0.1437
     135    H6      20.639431   17.928117   19.697232 H          1 MOL1         0.0947
     136    H7      21.312449   19.521603   19.404740 H          1 MOL1         0.0947
     137    C4      20.581078   19.245449   21.425751 C.3        1 MOL1        -0.1437
     138    H8      20.513203   20.320953   21.637088 H          1 MOL1         0.0947
     139    H9      21.573313   18.926717   21.764000 H          1 MOL1         0.0947
     140    C5      19.507860   18.490964   22.241289 C.3        1 MOL1        -0.1437
     141    H10     18.505677   18.842359   21.972246 H          1 MOL1         0.0947
     142    H11     19.543551   17.425091   21.988364 H          1 MOL1         0.0947
     143    C6      19.719051   18.664487   23.759988 C.3        1 MOL1        -0.1437
     144    H12     19.642254   19.725676   24.033159 H          1 MOL1         0.0947
     145    H13     20.739536   18.357593   24.016933 H          1 MOL1         0.0947
     146    C7      18.691409   17.839427   24.569274 C.3        1 MOL1        -0.1477
     147    H14     17.700370   18.303718   24.487354 H          1 MOL1         0.0947
     148    H15     18.598382   16.831863   24.146298 H          1 MOL1         0.0947
     149    C8      19.071623   17.709737   26.053371 C.3        1 MOL1         0.0145
     150    H16     18.260795   17.212531   26.592283 H          1 MOL1         0.0921
     151    H17     19.225873   18.698711   26.492868 H          1 MOL1         0.0921
     152    N1      20.329011   16.888979   26.255364 N.4        1 MOL1        -0.5969
     153    H18     20.252135   15.975342   25.778392 H          1 MOL1         0.3603
     154    H19     20.525153   16.713145   27.245943 H          1 MOL1         0.3603
     155    H20     21.148573   17.355501   25.849147 H          1 MOL1         0.3603
@<TRIPOS>BOND
    1     1     2    1
    2     1     3    1
    3     1     4    1
    4     4     5    1
    5     4     6    1
    6     6     7    1
    7     4     8    1
    8     8     9    1
    9     8    10    1
   10    10    11    1
   11     8    12    1
   12    12    13    1
   13    12    14    1
   14    14    15    1
   15     1    16    1
   16    14    16    1
   17    14    17    1
   18    17    18    1
   19    17    19    1
   20    17    20    1
   21    20    21    1
   22    22    23    1
   23    22    24    1
   24    22    25    1
   25    25    26    1
   26    25    27    1
   27    27    28    1
   28    25    29    1
   29    29    30    1
   30    29    31    1
   31    31    32    1
   32     3    33    1
   33    29    33    1
   34    33    34    1
   35    33    35    1
   36    35    36    1
   37    22    37    1
   38    35    37    1
   39    35    38    1
   40    38    39    1
   41    38    40    1
   42    38    41    1
   43    41    42    1
   44    43    44    1
   45    43    45    1
   46    43    46    1
   47    46    47    1
   48    46    48    1
   49    48    49    1
   50    46    50    1
   51    50    51    1
   52    50    52    1
   53    52    53    1
   54    24    54    1
   55    50    54    1
   56    54    55    1
   57    54    56    1
   58    56    57    1
   59    43    58    1
   60    56    58    1
   61    56    59    1
   62    59    60    1
   63    59    61    1
   64    59    62    1
   65    62    63    1
   66    64    65    1
   67    64    66    1
   68    64    67    1
   69    67    68    1
   70    67    69    1
   71    69    70    1
   72    67    71    1
   73    71    72    1
   74    71    73    1
   75    73    74    1
   76    45    75    1
   77    71    75    1
   78    75    76    1
   79    75    77    1
   80    77    78    1
   81    64    79    1
   82    77    79    1
   83    77    80    1
   84    80    81    1
   85    80    82    1
   86    80    83    1
   87    83    84    1
   88    85    86    1
   89    85    87    1
   90    85    88    1
   91    88    89    1
   92    88    90    1
   93    90    91    1
   94    88    92    1
   95    92    93    1
   96    92    94    1
   97    94    95    1
   98    66    96    1
   99    92    96    1
  100    96    97    1
  101    96    98    1
  102    98    99    1
  103    85   100    1
  104    98   100    1
  105    98   101    1
  106   101   102    1
  107   101   103    1
  108   101   104    1
  109   104   105    1
  110   106   107    1
  111    12   108    1
  112   106   108    1
  113   106   109    1
  114   109   110    1
  115   109   111    1
  116   111   112    1
  117   109   113    1
  118   113   114    1
  119   113   115    1
  120   115   116    1
  121    87   117    1
  122   113   117    1
  123   117   118    1
  124   117   119    1
  125   119   120    1
  126   106   121    1
  127   119   121    1
  128   119   122    1
  129   122   123    1
  130   122   124    1
  131   122   125    1
  132   125   126    1
  133   127   128    1
  134   127   129    1
  135   127   130    1
  136   127   131    1
  137   131   132    1
  138   131   133    1
  139   131   134    1
  140   134   135    1
  141   134   136    1
  142   134   137    1
  143   137   138    1
  144   137   139    1
  145   137   140    1
  146   140   141    1
  147   140   142    1
  148   140   143    1
  149   143   144    1
  150   143   145    1
  151   143   146    1
  152   146   147    1
  153   146   148    1
  154   146   149    1
  155   149   150    1
  156   149   151    1
  157   149   152    1
  158   152   153    1
  159   152   154    1
  160   152   155    1
@<TRIPOS>SUBSTRUCTURE
       1 MOL1            1 RESIDUE      1      MOL     
       2 MOL1          155 RESIDUE      1      MOL     
@<SCITEGIC>MOL_PROPERTY
feprocess Rank
SciTegic.value.IntegerValue
2

@<SCITEGIC>MOL_PROPERTY
Conf_Id
SciTegic.value.IntegerValue
26

@<SCITEGIC>MOL_PROPERTY
Probability
SciTegic.value.DoubleValue
21.48

@<SCITEGIC>MOL_PROPERTY
G
SciTegic.value.DoubleValue
584.231

@<SCITEGIC>MOL_PROPERTY
E
SciTegic.value.DoubleValue
373.594

@<SCITEGIC>MOL_PROPERTY
-TS
SciTegic.value.DoubleValue
210.636

@<SCITEGIC>MOL_PROPERTY
U+W
SciTegic.value.DoubleValue
236.775

@<SCITEGIC>MOL_PROPERTY
U
SciTegic.value.DoubleValue
320.154

@<SCITEGIC>MOL_PROPERTY
W
SciTegic.value.DoubleValue
-83.377

@<SCITEGIC>MOL_PROPERTY
W(PB)
SciTegic.value.DoubleValue
-89.602

@<SCITEGIC>MOL_PROPERTY
W(SA)
SciTegic.value.DoubleValue
6.225

@<SCITEGIC>MOL_PROPERTY
Valence
SciTegic.value.DoubleValue
147.209

@<SCITEGIC>MOL_PROPERTY
Coulomb
SciTegic.value.DoubleValue
199.854

@<SCITEGIC>MOL_PROPERTY
VdW
SciTegic.value.DoubleValue
-26.909

@<SCITEGIC>MOL_PROPERTY
VdW6
SciTegic.value.DoubleValue
-188.058

@<SCITEGIC>MOL_PROPERTY
VdW12
SciTegic.value.DoubleValue
161.149

@<SCITEGIC>MOL_PROPERTY
Bond
SciTegic.value.DoubleValue
4.769

@<SCITEGIC>MOL_PROPERTY
Angle
SciTegic.value.DoubleValue
11.614

@<SCITEGIC>MOL_PROPERTY
Pdih
SciTegic.value.DoubleValue
130.826

@<SCITEGIC>MOL_PROPERTY
Idih
SciTegic.value.DoubleValue
0.000

@<SCITEGIC>MOL_PROPERTY
Tether
SciTegic.value.DoubleValue
0.000

@<TRIPOS>MOLECULE
CD_guest-3_fast_vm2_rndm.mol2 : feprocess host+ligand conformer 3
         155         160           2
SMALL
USER_CHARGES
 
@<TRIPOS>ATOM
       1    C1      16.303410   15.222973   20.639522 C.3        1 MOL1         0.2972
       2    H1      15.259287   15.083539   20.331290 H          1 MOL1         0.0751
       3    O1      16.570806   16.593546   21.001164 O.3        1 MOL1        -0.3740
       4    C2      16.663864   14.297481   21.831483 C.3        1 MOL1         0.1003
       5    H2      16.527210   13.263499   21.488907 H          1 MOL1         0.0783
       6    O2      15.812287   14.526762   22.964423 O.3        1 MOL1        -0.5519
       7    H3      15.920483   15.476059   23.226621 H          1 MOL1         0.3769
       8    C3      18.149123   14.473284   22.230181 C.3        1 MOL1         0.1053
       9    H4      18.267197   15.484007   22.640528 H          1 MOL1         0.0783
      10    O3      18.483040   13.502838   23.228186 O.3        1 MOL1        -0.5519
      11    H5      17.703569   13.477911   23.828679 H          1 MOL1         0.3769
      12    C4      19.092144   14.339228   21.002749 C.3        1 MOL1         0.1018
      13    H6      19.177602   13.282752   20.714881 H          1 MOL1         0.0783
      14    C5      18.593315   15.146120   19.773573 C.3        1 MOL1         0.1043
      15    H7      18.745311   16.213866   19.966573 H          1 MOL1         0.0783
      16    O4      17.187784   14.872484   19.555061 O.3        1 MOL1        -0.3740
      17    C6      19.366281   14.772357   18.488153 C.3        1 MOL1         0.0138
      18    H8      20.442456   14.764768   18.706805 H          1 MOL1         0.0794
      19    H9      19.086677   13.755310   18.182766 H          1 MOL1         0.0794
      20    O5      19.095903   15.701769   17.432588 O.3        1 MOL1        -0.5486
      21    H10     19.326152   16.597935   17.751103 H          1 MOL1         0.3769
      22    C7      14.795542   20.236241   21.754324 C.3        1 MOL1         0.2972
      23    H11     14.138323   21.083996   21.987277 H          1 MOL1         0.0751
      24    O6      16.078231   20.672744   21.260421 O.3        1 MOL1        -0.3740
      25    C8      15.008259   19.359497   23.014643 C.3        1 MOL1         0.1003
      26    H12     14.026956   18.963190   23.306689 H          1 MOL1         0.0783
      27    O7      15.554618   20.117247   24.106197 O.3        1 MOL1        -0.5519
      28    H13     15.697383   21.040297   23.781811 H          1 MOL1         0.3769
      29    C9      15.931705   18.165537   22.692490 C.3        1 MOL1         0.1053
      30    H14     16.925350   18.573596   22.476404 H          1 MOL1         0.0783
      31    O8      16.001455   17.303799   23.832712 O.3        1 MOL1        -0.5519
      32    H15     16.085605   17.916100   24.598225 H          1 MOL1         0.3769
      33    C10     15.445769   17.375608   21.450994 C.3        1 MOL1         0.1018
      34    H16     14.598833   16.744147   21.750926 H          1 MOL1         0.0783
      35    C11     15.028608   18.300052   20.269599 C.3        1 MOL1         0.1043
      36    H17     15.944255   18.708803   19.822892 H          1 MOL1         0.0783
      37    O9      14.202673   19.396635   20.741874 O.3        1 MOL1        -0.3740
      38    C12     14.265918   17.562194   19.143289 C.3        1 MOL1         0.0138
      39    H18     14.973810   16.913012   18.610154 H          1 MOL1         0.0794
      40    H19     13.900371   18.306094   18.422747 H          1 MOL1         0.0794
      41    O10     13.176134   16.781130   19.649304 O.3        1 MOL1        -0.5486
      42    H20     12.689941   16.413489   18.879169 H          1 MOL1         0.3769
      43    C13     18.411529   24.017641   20.650753 C.3        1 MOL1         0.2972
      44    H21     18.843937   24.993050   20.393550 H          1 MOL1         0.0751
      45    O11     19.441656   23.041149   20.920858 O.3        1 MOL1        -0.3740
      46    C14     17.447538   24.132386   21.863183 C.3        1 MOL1         0.1003
      47    H22     16.621182   24.785026   21.552461 H          1 MOL1         0.0783
      48    O12     18.081628   24.712293   23.012375 O.3        1 MOL1        -0.5519
      49    H23     18.778134   24.072938   23.306957 H          1 MOL1         0.3769
      50    C15     16.850770   22.748466   22.214327 C.3        1 MOL1         0.1053
      51    H24     17.667176   22.103903   22.568857 H          1 MOL1         0.0783
      52    O13     15.873167   22.906246   23.247424 O.3        1 MOL1        -0.5519
      53    H25     16.264793   23.557717   23.872541 H          1 MOL1         0.3769
      54    C16     16.209235   22.077302   20.971612 C.3        1 MOL1         0.1018
      55    H26     15.238082   22.546941   20.769940 H          1 MOL1         0.0783
      56    C17     17.097863   22.179508   19.701271 C.3        1 MOL1         0.1043
      57    H27     17.932997   21.485625   19.824713 H          1 MOL1         0.0783
      58    O14     17.621661   23.522532   19.547445 O.3        1 MOL1        -0.3740
      59    C18     16.377818   21.765399   18.394389 C.3        1 MOL1         0.0138
      60    H28     16.257565   20.673945   18.391958 H          1 MOL1         0.0794
      61    H29     17.026147   22.020629   17.545552 H          1 MOL1         0.0794
      62    O15     15.098855   22.392017   18.241200 O.3        1 MOL1        -0.5486
      63    H30     14.468400   21.926647   18.831860 H          1 MOL1         0.3769
      64    C19     23.405262   22.555183   22.063349 C.3        1 MOL1         0.2972
      65    H31     24.430917   22.692347   22.429155 H          1 MOL1         0.0751
      66    O16     23.245984   21.282479   21.402282 O.3        1 MOL1        -0.3740
      67    C20     22.397609   22.654403   23.239574 C.3        1 MOL1         0.1003
      68    H32     22.525070   23.647597   23.689670 H          1 MOL1         0.0783
      69    O17     22.637405   21.648751   24.237987 O.3        1 MOL1        -0.5519
      70    H33     23.561213   21.323857   24.109360 H          1 MOL1         0.3769
      71    C21     20.942764   22.537063   22.734803 C.3        1 MOL1         0.1053
      72    H34     20.807575   21.512786   22.374090 H          1 MOL1         0.0783
      73    O18     20.053804   22.780002   23.828442 O.3        1 MOL1        -0.5519
      74    H35     20.438186   22.265498   24.573940 H          1 MOL1         0.3769
      75    C22     20.649187   23.506678   21.560715 C.3        1 MOL1         0.1018
      76    H36     20.540171   24.523799   21.959530 H          1 MOL1         0.0783
      77    C23     21.771685   23.480557   20.485943 C.3        1 MOL1         0.1043
      78    H37     21.712651   22.522291   19.954641 H          1 MOL1         0.0783
      79    O19     23.072344   23.592598   21.116335 O.3        1 MOL1        -0.3740
      80    C24     21.639354   24.599167   19.424996 C.3        1 MOL1         0.0138
      81    H38     20.782788   24.365387   18.778254 H          1 MOL1         0.0794
      82    H39     22.537579   24.590072   18.793034 H          1 MOL1         0.0794
      83    O20     21.460225   25.890948   20.019058 O.3        1 MOL1        -0.5486
      84    H40     21.468323   26.555653   19.296176 H          1 MOL1         0.3769
      85    C25     25.142514   17.636718   21.030125 C.3        1 MOL1         0.2972
      86    H41     25.805065   16.782727   20.838540 H          1 MOL1         0.0751
      87    O21     23.780451   17.215011   21.250337 O.3        1 MOL1        -0.3740
      88    C26     25.627585   18.463454   22.248233 C.3        1 MOL1         0.1003
      89    H42     26.611125   18.875072   21.986388 H          1 MOL1         0.0783
      90    O22     25.765838   17.654659   23.425690 O.3        1 MOL1        -0.5519
      91    H43     24.875360   17.267106   23.621773 H          1 MOL1         0.3769
      92    C27     24.671285   19.652145   22.511230 C.3        1 MOL1         0.1053
      93    H44     23.700826   19.244527   22.827574 H          1 MOL1         0.0783
      94    O23     25.221817   20.460921   23.556979 O.3        1 MOL1        -0.5519
      95    H45     25.593951   19.818801   24.203891 H          1 MOL1         0.3769
      96    C28     24.445521   20.498669   21.225705 C.3        1 MOL1         0.1018
      97    H46     25.318766   21.142053   21.053948 H          1 MOL1         0.0783
      98    C29     24.210621   19.629816   19.956649 C.3        1 MOL1         0.1043
      99    H47     23.191021   19.227947   19.991021 H          1 MOL1         0.0783
     100    O24     25.153326   18.530477   19.898650 O.3        1 MOL1        -0.3740
     101    C30     24.353511   20.439840   18.648967 C.3        1 MOL1         0.0138
     102    H48     23.653425   21.285340   18.671725 H          1 MOL1         0.0794
     103    H49     24.072559   19.798585   17.802848 H          1 MOL1         0.0794
     104    O25     25.691566   20.917832   18.485692 O.3        1 MOL1        -0.5486
     105    H50     26.273543   20.129447   18.566758 H          1 MOL1         0.3769
     106    C31     21.333066   13.971726   21.923452 C.3        1 MOL1         0.2972
     107    H51     20.878047   12.997547   22.144172 H          1 MOL1         0.0751
     108    O26     20.373162   14.893663   21.364376 O.3        1 MOL1        -0.3740
     109    C32     21.939415   14.583783   23.211263 C.3        1 MOL1         0.1003
     110    H52     22.727166   13.899771   23.553228 H          1 MOL1         0.0783
     111    O27     20.957341   14.723486   24.251311 O.3        1 MOL1        -0.5519
     112    H53     20.151005   14.231308   23.960772 H          1 MOL1         0.3769
     113    C33     22.591036   15.951654   22.907023 C.3        1 MOL1         0.1053
     114    H54     21.797433   16.647685   22.620297 H          1 MOL1         0.0783
     115    O28     23.237714   16.429922   24.088939 O.3        1 MOL1        -0.5519
     116    H55     22.615438   16.199759   24.815286 H          1 MOL1         0.3769
     117    C34     23.589969   15.867229   21.725979 C.3        1 MOL1         0.1018
     118    H56     24.524565   15.419294   22.089110 H          1 MOL1         0.0783
     119    C35     23.033887   15.049636   20.523781 C.3        1 MOL1         0.1043
     120    H57     22.277792   15.665291   20.019264 H          1 MOL1         0.0783
     121    O29     22.411334   13.820107   20.976898 O.3        1 MOL1        -0.3740
     122    C36     24.109920   14.696513   19.469201 C.3        1 MOL1         0.0138
     123    H58     23.664373   14.020950   18.726727 H          1 MOL1         0.0794
     124    H59     24.396274   15.616932   18.942413 H          1 MOL1         0.0794
     125    O30     25.268913   14.094444   20.059269 O.3        1 MOL1        -0.5486
     126    H60     25.869820   13.826846   19.329846 H          1 MOL1         0.3769
     127    C1      20.379884   21.402987   15.758994 C.3        1 MOL1        -0.2427
     128    H1      20.158137   21.197300   14.703794 H          1 MOL1         0.0958
     129    H2      19.823686   22.303424   16.051049 H          1 MOL1         0.0958
     130    H3      21.452589   21.621227   15.841682 H          1 MOL1         0.0958
     131    C2      19.988967   20.199535   16.641861 C.3        1 MOL1        -0.1412
     132    H4      18.918812   19.985587   16.512662 H          1 MOL1         0.0947
     133    H5      20.534782   19.306475   16.306655 H          1 MOL1         0.0947
     134    C3      20.292162   20.469726   18.130219 C.3        1 MOL1        -0.1437
     135    H6      21.363116   20.674038   18.253709 H          1 MOL1         0.0947
     136    H7      19.762093   21.376679   18.450575 H          1 MOL1         0.0947
     137    C4      19.889535   19.279749   19.028916 C.3        1 MOL1        -0.1437
     138    H8      20.470980   18.391729   18.746298 H          1 MOL1         0.0947
     139    H9      18.829138   19.037929   18.871769 H          1 MOL1         0.0947
     140    C5      20.126531   19.599442   20.518695 C.3        1 MOL1        -0.1437
     141    H10     21.178426   19.857791   20.681967 H          1 MOL1         0.0947
     142    H11     19.539759   20.478211   20.801981 H          1 MOL1         0.0947
     143    C6      19.737854   18.432497   21.441316 C.3        1 MOL1        -0.1437
     144    H12     20.353812   17.557748   21.199871 H          1 MOL1         0.0947
     145    H13     18.695979   18.152055   21.250265 H          1 MOL1         0.0947
     146    C7      19.911432   18.808454   22.928476 C.3        1 MOL1        -0.1477
     147    H14     20.964029   19.056335   23.124374 H          1 MOL1         0.0947
     148    H15     19.319348   19.704501   23.159913 H          1 MOL1         0.0947
     149    C8      19.470980   17.661352   23.849575 C.3        1 MOL1         0.0145
     150    H16     20.006052   16.749514   23.578443 H          1 MOL1         0.0921
     151    H17     18.401642   17.475323   23.727330 H          1 MOL1         0.0921
     152    N1      19.737652   17.937931   25.312469 N.4        1 MOL1        -0.5969
     153    H18     20.729937   18.129682   25.483743 H          1 MOL1         0.3603
     154    H19     19.480284   17.134476   25.896082 H          1 MOL1         0.3603
     155    H20     19.205452   18.746423   25.649697 H          1 MOL1         0.3603
@<TRIPOS>BOND
    1     1     2    1
    2     1     3    1
    3     1     4    1
    4     4     5    1
    5     4     6    1
    6     6     7    1
    7     4     8    1
    8     8     9    1
    9     8    10    1
   10    10    11    1
   11     8    12    1
   12    12    13    1
   13    12    14    1
   14    14    15    1
   15     1    16    1
   16    14    16    1
   17    14    17    1
   18    17    18    1
   19    17    19    1
   20    17    20    1
   21    20    21    1
   22    22    23    1
   23    22    24    1
   24    22    25    1
   25    25    26    1
   26    25    27    1
   27    27    28    1
   28    25    29    1
   29    29    30    1
   30    29    31    1
   31    31    32    1
   32     3    33    1
   33    29    33    1
   34    33    34    1
   35    33    35    1
   36    35    36    1
   37    22    37    1
   38    35    37    1
   39    35    38    1
   40    38    39    1
   41    38    40    1
   42    38    41    1
   43    41    42    1
   44    43    44    1
   45    43    45    1
   46    43    46    1
   47    46    47    1
   48    46    48    1
   49    48    49    1
   50    46    50    1
   51    50    51    1
   52    50    52    1
   53    52    53    1
   54    24    54    1
   55    50    54    1
   56    54    55    1
   57    54    56    1
   58    56    57    1
   59    43    58    1
   60    56    58    1
   61    56    59    1
   62    59    60    1
   63    59    61    1
   64    59    62    1
   65    62    63    1
   66    64    65    1
   67    64    66    1
   68    64    67    1
   69    67    68    1
   70    67    69    1
   71    69    70    1
   72    67    71    1
   73    71    72    1
   74    71    73    1
   75    73    74    1
   76    45    75    1
   77    71    75    1
   78    75    76    1
   79    75    77    1
   80    77    78    1
   81    64    79    1
   82    77    79    1
   83    77    80    1
   84    80    81    1
   85    80    82    1
   86    80    83    1
   87    83    84    1
   88    85    86    1
   89    85    87    1
   90    85    88    1
   91    88    89    1
   92    88    90    1
   93    90    91    1
   94    88    92    1
   95    92    93    1
   96    92    94    1
   97    94    95    1
   98    66    96    1
   99    92    96    1
  100    96    97    1
  101    96    98    1
  102    98    99    1
  103    85   100    1
  104    98   100    1
  105    98   101    1
  106   101   102    1
  107   101   103    1
  108   101   104    1
  109   104   105    1
  110   106   107    1
  111    12   108    1
  112   106   108    1
  113   106   109    1
  114   109   110    1
  115   109   111    1
  116   111   112    1
  117   109   113    1
  118   113   114    1
  119   113   115    1
  120   115   116    1
  121    87   117    1
  122   113   117    1
  123   117   118    1
  124   117   119    1
  125   119   120    1
  126   106   121    1
  127   119   121    1
  128   119   122    1
  129   122   123    1
  130   122   124    1
  131   122   125    1
  132   125   126    1
  133   127   128    1
  134   127   129    1
  135   127   130    1
  136   127   131    1
  137   131   132    1
  138   131   133    1
  139   131   134    1
  140   134   135    1
  141   134   136    1
  142   134   137    1
  143   137   138    1
  144   137   139    1
  145   137   140    1
  146   140   141    1
  147   140   142    1
  148   140   143    1
  149   143   144    1
  150   143   145    1
  151   143   146    1
  152   146   147    1
  153   146   148    1
  154   146   149    1
  155   149   150    1
  156   149   151    1
  157   149   152    1
  158   152   153    1
  159   152   154    1
  160   152   155    1
@<TRIPOS>SUBSTRUCTURE
       1 MOL1            1 RESIDUE      1      MOL     
       2 MOL1          155 RESIDUE      1      MOL     
@<SCITEGIC>MOL_PROPERTY
feprocess Rank
SciTegic.value.IntegerValue
3

@<SCITEGIC>MOL_PROPERTY
Conf_Id
SciTegic.value.IntegerValue
531

@<SCITEGIC>MOL_PROPERTY
Probability
SciTegic.value.DoubleValue
8.87

@<SCITEGIC>MOL_PROPERTY
G
SciTegic.value.DoubleValue
584.758

@<SCITEGIC>MOL_PROPERTY
E
SciTegic.value.DoubleValue
377.742

@<SCITEGIC>MOL_PROPERTY
-TS
SciTegic.value.DoubleValue
207.016

@<SCITEGIC>MOL_PROPERTY
U+W
SciTegic.value.DoubleValue
240.922

@<SCITEGIC>MOL_PROPERTY
U
SciTegic.value.DoubleValue
324.325

@<SCITEGIC>MOL_PROPERTY
W
SciTegic.value.DoubleValue
-83.403

@<SCITEGIC>MOL_PROPERTY
W(PB)
SciTegic.value.DoubleValue
-89.645

@<SCITEGIC>MOL_PROPERTY
W(SA)
SciTegic.value.DoubleValue
6.242

@<SCITEGIC>MOL_PROPERTY
Valence
SciTegic.value.DoubleValue
146.427

@<SCITEGIC>MOL_PROPERTY
Coulomb
SciTegic.value.DoubleValue
205.002

@<SCITEGIC>MOL_PROPERTY
VdW
SciTegic.value.DoubleValue
-27.104

@<SCITEGIC>MOL_PROPERTY
VdW6
SciTegic.value.DoubleValue
-182.848

@<SCITEGIC>MOL_PROPERTY
VdW12
SciTegic.value.DoubleValue
155.744

@<SCITEGIC>MOL_PROPERTY
Bond
SciTegic.value.DoubleValue
4.656

@<SCITEGIC>MOL_PROPERTY
Angle
SciTegic.value.DoubleValue
11.125

@<SCITEGIC>MOL_PROPERTY
Pdih
SciTegic.value.DoubleValue
130.647

@<SCITEGIC>MOL_PROPERTY
Idih
SciTegic.value.DoubleValue
0.000

@<SCITEGIC>MOL_PROPERTY
Tether
SciTegic.value.DoubleValue
0.000

@<TRIPOS>MOLECULE
CD_guest-3_fast_vm2_rndm.mol2 : feprocess host+ligand conformer 4
         155         160           2
SMALL
USER_CHARGES
 
@<TRIPOS>ATOM
       1    C1      16.124911   15.076572   21.660562 C.3        1 MOL1         0.2972
       2    H1      15.043483   14.951178   21.800147 H          1 MOL1         0.0751
       3    O1      16.469420   16.434259   21.307748 O.3        1 MOL1        -0.3740
       4    C2      16.881346   14.692877   22.955915 C.3        1 MOL1         0.1003
       5    H2      16.702963   13.625277   23.139529 H          1 MOL1         0.0783
       6    O2      16.412707   15.450538   24.082634 O.3        1 MOL1        -0.5519
       7    H3      15.883605   16.207913   23.728292 H          1 MOL1         0.3769
       8    C3      18.399985   14.899494   22.767324 C.3        1 MOL1         0.1053
       9    H4      18.567961   15.975005   22.658708 H          1 MOL1         0.0783
      10    O3      19.093682   14.425359   23.924827 O.3        1 MOL1        -0.5519
      11    H5      18.567170   14.761153   24.684965 H          1 MOL1         0.3769
      12    C4      18.932606   14.193329   21.493348 C.3        1 MOL1         0.1018
      13    H6      19.068009   13.126982   21.717998 H          1 MOL1         0.0783
      14    C5      18.003395   14.369447   20.255981 C.3        1 MOL1         0.1043
      15    H7      18.146463   15.387164   19.873125 H          1 MOL1         0.0783
      16    O4      16.609936   14.202293   20.620792 O.3        1 MOL1        -0.3740
      17    C6      18.327620   13.401144   19.093410 C.3        1 MOL1         0.0138
      18    H8      19.278280   13.709540   18.637671 H          1 MOL1         0.0794
      19    H9      17.549400   13.504073   18.325271 H          1 MOL1         0.0794
      20    O5      18.418060   12.039837   19.531673 O.3        1 MOL1        -0.5486
      21    H10     18.541679   11.477734   18.735760 H          1 MOL1         0.3769
      22    C7      14.874613   20.187668   20.566214 C.3        1 MOL1         0.2972
      23    H11     14.257366   21.045876   20.271392 H          1 MOL1         0.0751
      24    O6      16.230101   20.591952   20.855680 O.3        1 MOL1        -0.3740
      25    C8      14.259722   19.451397   21.788631 C.3        1 MOL1         0.1003
      26    H12     13.276483   19.077423   21.474503 H          1 MOL1         0.0783
      27    O7      14.081030   20.323384   22.914292 O.3        1 MOL1        -0.5519
      28    H13     14.983787   20.622170   23.191404 H          1 MOL1         0.3769
      29    C9      15.125453   18.230592   22.181763 C.3        1 MOL1         0.1053
      30    H14     16.097457   18.601643   22.534888 H          1 MOL1         0.0783
      31    O8      14.475233   17.504462   23.229126 O.3        1 MOL1        -0.5519
      32    H15     14.129062   18.193048   23.840680 H          1 MOL1         0.3769
      33    C10     15.371736   17.302959   20.964523 C.3        1 MOL1         0.1018
      34    H16     14.455291   16.739560   20.744582 H          1 MOL1         0.0783
      35    C11     15.796793   18.089139   19.694643 C.3        1 MOL1         0.1043
      36    H17     16.824286   18.440060   19.842592 H          1 MOL1         0.0783
      37    O9      14.929277   19.232284   19.487381 O.3        1 MOL1        -0.3740
      38    C12     15.778730   17.224820   18.411322 C.3        1 MOL1         0.0138
      39    H18     16.562612   16.460992   18.494158 H          1 MOL1         0.0794
      40    H19     16.032016   17.863836   17.554896 H          1 MOL1         0.0794
      41    O10     14.509059   16.593260   18.203570 O.3        1 MOL1        -0.5486
      42    H20     14.560949   16.085968   17.364680 H          1 MOL1         0.3769
      43    C13     18.569111   23.887342   21.819286 C.3        1 MOL1         0.2972
      44    H21     18.946793   24.869798   22.130379 H          1 MOL1         0.0751
      45    O11     19.610664   23.082360   21.229594 O.3        1 MOL1        -0.3740
      46    C14     17.963292   23.134527   23.032975 C.3        1 MOL1         0.1003
      47    H22     17.139311   23.751102   23.415388 H          1 MOL1         0.0783
      48    O12     18.930938   22.942355   24.077531 O.3        1 MOL1        -0.5519
      49    H23     19.665945   23.579599   23.897129 H          1 MOL1         0.3769
      50    C15     17.382736   21.770735   22.598807 C.3        1 MOL1         0.1053
      51    H24     18.219480   21.138103   22.279425 H          1 MOL1         0.0783
      52    O13     16.715291   21.174732   23.715407 O.3        1 MOL1        -0.5519
      53    H25     17.304090   21.351933   24.480086 H          1 MOL1         0.3769
      54    C16     16.409087   21.914891   21.404498 C.3        1 MOL1         0.1018
      55    H26     15.465444   22.340021   21.771313 H          1 MOL1         0.0783
      56    C17     16.988583   22.817007   20.277440 C.3        1 MOL1         0.1043
      57    H27     17.799665   22.268155   19.782636 H          1 MOL1         0.0783
      58    O14     17.522631   24.044119   20.837548 O.3        1 MOL1        -0.3740
      59    C18     15.954099   23.185852   19.187257 C.3        1 MOL1         0.0138
      60    H28     16.406953   23.922260   18.509913 H          1 MOL1         0.0794
      61    H29     15.737931   22.286897   18.594174 H          1 MOL1         0.0794
      62    O15     14.739534   23.702781   19.745521 O.3        1 MOL1        -0.5486
      63    H30     14.168592   23.992246   19.000661 H          1 MOL1         0.3769
      64    C19     23.717725   22.862396   20.977161 C.3        1 MOL1         0.2972
      65    H31     24.794989   22.983403   20.804468 H          1 MOL1         0.0751
      66    O16     23.372404   21.493147   21.278652 O.3        1 MOL1        -0.3740
      67    C20     23.224736   23.770788   22.131606 C.3        1 MOL1         0.1003
      68    H32     23.372979   24.810160   21.810487 H          1 MOL1         0.0783
      69    O17     23.966578   23.551114   23.340219 O.3        1 MOL1        -0.5519
      70    H33     23.894846   22.587889   23.560545 H          1 MOL1         0.3769
      71    C21     21.709817   23.560462   22.373481 C.3        1 MOL1         0.1053
      72    H34     21.564727   22.538494   22.747714 H          1 MOL1         0.0783
      73    O18     21.266053   24.502929   23.355666 O.3        1 MOL1        -0.5519
      74    H35     21.995877   24.541959   24.015291 H          1 MOL1         0.3769
      75    C22     20.895484   23.716151   21.057078 C.3        1 MOL1         0.1018
      76    H36     20.787870   24.784072   20.829158 H          1 MOL1         0.0783
      77    C23     21.557115   23.003678   19.842716 C.3        1 MOL1         0.1043
      78    H37     21.405579   21.925696   19.957816 H          1 MOL1         0.0783
      79    O19     22.981073   23.262367   19.803008 O.3        1 MOL1        -0.3740
      80    C24     20.936891   23.396900   18.479281 C.3        1 MOL1         0.0138
      81    H38     19.927978   22.967474   18.416466 H          1 MOL1         0.0794
      82    H39     21.534877   22.937809   17.680913 H          1 MOL1         0.0794
      83    O20     20.870868   24.815339   18.287999 O.3        1 MOL1        -0.5486
      84    H40     20.132417   25.155175   18.837336 H          1 MOL1         0.3769
      85    C25     24.864535   17.739483   22.085058 C.3        1 MOL1         0.2972
      86    H41     25.463396   16.851895   22.327556 H          1 MOL1         0.0751
      87    O21     23.533908   17.385708   21.663467 O.3        1 MOL1        -0.3740
      88    C26     24.749919   18.654010   23.325646 C.3        1 MOL1         0.1003
      89    H42     25.764078   18.980989   23.589851 H          1 MOL1         0.0783
      90    O22     24.174933   17.944384   24.435173 O.3        1 MOL1        -0.5519
      91    H43     23.965734   17.031069   24.119333 H          1 MOL1         0.3769
      92    C27     23.907949   19.905775   22.994051 C.3        1 MOL1         0.1053
      93    H44     22.883591   19.577313   22.785812 H          1 MOL1         0.0783
      94    O23     23.913490   20.779045   24.125726 O.3        1 MOL1        -0.5519
      95    H45     23.822454   20.175568   24.896530 H          1 MOL1         0.3769
      96    C28     24.436940   20.634858   21.733708 C.3        1 MOL1         0.1018
      97    H46     25.338791   21.199467   22.005391 H          1 MOL1         0.0783
      98    C29     24.743724   19.658017   20.561127 C.3        1 MOL1         0.1043
      99    H47     23.783986   19.324371   20.147790 H          1 MOL1         0.0783
     100    O24     25.482283   18.497235   21.023805 O.3        1 MOL1        -0.3740
     101    C30     25.533459   20.315458   19.404483 C.3        1 MOL1         0.0138
     102    H48     24.872268   21.027484   18.891995 H          1 MOL1         0.0794
     103    H49     25.803068   19.538254   18.676766 H          1 MOL1         0.0794
     104    O25     26.707546   20.992413   19.870029 O.3        1 MOL1        -0.5486
     105    H50     27.194657   21.319955   19.082631 H          1 MOL1         0.3769
     106    C31     21.282441   13.989289   20.801514 C.3        1 MOL1         0.2972
     107    H51     20.937444   13.006436   20.455281 H          1 MOL1         0.0751
     108    O26     20.177724   14.841356   21.166878 O.3        1 MOL1        -0.3740
     109    C32     22.230633   13.853686   22.024838 C.3        1 MOL1         0.1003
     110    H52     23.100583   13.269651   21.697355 H          1 MOL1         0.0783
     111    O27     21.597499   13.170095   23.117191 O.3        1 MOL1        -0.5519
     112    H53     20.772067   13.669805   23.342053 H          1 MOL1         0.3769
     113    C33     22.735035   15.246874   22.475930 C.3        1 MOL1         0.1053
     114    H54     21.873090   15.815762   22.847175 H          1 MOL1         0.0783
     115    O28     23.701626   15.096826   23.521014 O.3        1 MOL1        -0.5519
     116    H55     23.334319   14.400232   24.110627 H          1 MOL1         0.3769
     117    C34     23.353487   16.013133   21.279208 C.3        1 MOL1         0.1018
     118    H56     24.305143   15.536136   21.010143 H          1 MOL1         0.0783
     119    C35     22.424292   16.014635   20.038519 C.3        1 MOL1         0.1043
     120    H57     21.536157   16.614168   20.274054 H          1 MOL1         0.0783
     121    O29     22.018968   14.654441   19.749231 O.3        1 MOL1        -0.3740
     122    C36     23.067885   16.638148   18.771779 C.3        1 MOL1         0.0138
     123    H58     22.892888   17.721236   18.793547 H          1 MOL1         0.0794
     124    H59     22.548849   16.248267   17.886057 H          1 MOL1         0.0794
     125    O30     24.475600   16.390092   18.668538 O.3        1 MOL1        -0.5486
     126    H60     24.918590   16.925913   19.365118 H          1 MOL1         0.3769
     127    C1      19.492007   18.306933   18.658054 C.3        1 MOL1        -0.2427
     128    H1      18.942101   17.515728   19.179614 H          1 MOL1         0.0958
     129    H2      18.981524   18.491860   17.704200 H          1 MOL1         0.0958
     130    H3      20.495898   17.933033   18.429461 H          1 MOL1         0.0958
     131    C2      19.560648   19.606107   19.491834 C.3        1 MOL1        -0.1412
     132    H4      18.546472   19.989344   19.660596 H          1 MOL1         0.0947
     133    H5      20.079504   20.370805   18.900034 H          1 MOL1         0.0947
     134    C3      20.281751   19.444509   20.852487 C.3        1 MOL1        -0.1437
     135    H6      21.305883   19.082319   20.692149 H          1 MOL1         0.0947
     136    H7      20.373301   20.436770   21.308817 H          1 MOL1         0.0947
     137    C4      19.537508   18.502994   21.830307 C.3        1 MOL1        -0.1437
     138    H8      19.471791   17.506785   21.379521 H          1 MOL1         0.0947
     139    H9      18.503682   18.846049   21.970149 H          1 MOL1         0.0947
     140    C5      20.228594   18.363207   23.209396 C.3        1 MOL1        -0.1437
     141    H10     19.699321   17.599009   23.793891 H          1 MOL1         0.0947
     142    H11     21.249017   17.987185   23.067967 H          1 MOL1         0.0947
     143    C6      20.270280   19.672614   24.032124 C.3        1 MOL1        -0.1437
     144    H12     19.253246   20.066385   24.141280 H          1 MOL1         0.0947
     145    H13     20.854079   20.434526   23.502247 H          1 MOL1         0.0947
     146    C7      20.886924   19.444927   25.431184 C.3        1 MOL1        -0.1477
     147    H14     20.219640   18.816329   26.035283 H          1 MOL1         0.0947
     148    H15     21.827816   18.890053   25.330725 H          1 MOL1         0.0947
     149    C8      21.180015   20.760171   26.177690 C.3        1 MOL1         0.0145
     150    H16     21.875839   21.368296   25.592839 H          1 MOL1         0.0921
     151    H17     21.648342   20.533010   27.138980 H          1 MOL1         0.0921
     152    N1      19.948836   21.598148   26.451839 N.4        1 MOL1        -0.5969
     153    H18     19.523312   21.938020   25.574458 H          1 MOL1         0.3603
     154    H19     20.172040   22.430484   27.006476 H          1 MOL1         0.3603
     155    H20     19.232250   21.073070   26.961150 H          1 MOL1         0.3603
@<TRIPOS>BOND
    1     1     2    1
    2     1     3    1
    3     1     4    1
    4     4     5    1
    5     4     6    1
    6     6     7    1
    7     4     8    1
    8     8     9    1
    9     8    10    1
   10    10    11    1
   11     8    12    1
   12    12    13    1
   13    12    14    1
   14    14    15    1
   15     1    16    1
   16    14    16    1
   17    14    17    1
   18    17    18    1
   19    17    19    1
   20    17    20    1
   21    20    21    1
   22    22    23    1
   23    22    24    1
   24    22    25    1
   25    25    26    1
   26    25    27    1
   27    27    28    1
   28    25    29    1
   29    29    30    1
   30    29    31    1
   31    31    32    1
   32     3    33    1
   33    29    33    1
   34    33    34    1
   35    33    35    1
   36    35    36    1
   37    22    37    1
   38    35    37    1
   39    35    38    1
   40    38    39    1
   41    38    40    1
   42    38    41    1
   43    41    42    1
   44    43    44    1
   45    43    45    1
   46    43    46    1
   47    46    47    1
   48    46    48    1
   49    48    49    1
   50    46    50    1
   51    50    51    1
   52    50    52    1
   53    52    53    1
   54    24    54    1
   55    50    54    1
   56    54    55    1
   57    54    56    1
   58    56    57    1
   59    43    58    1
   60    56    58    1
   61    56    59    1
   62    59    60    1
   63    59    61    1
   64    59    62    1
   65    62    63    1
   66    64    65    1
   67    64    66    1
   68    64    67    1
   69    67    68    1
   70    67    69    1
   71    69    70    1
   72    67    71    1
   73    71    72    1
   74    71    73    1
   75    73    74    1
   76    45    75    1
   77    71    75    1
   78    75    76    1
   79    75    77    1
   80    77    78    1
   81    64    79    1
   82    77    79    1
   83    77    80    1
   84    80    81    1
   85    80    82    1
   86    80    83    1
   87    83    84    1
   88    85    86    1
   89    85    87    1
   90    85    88    1
   91    88    89    1
   92    88    90    1
   93    90    91    1
   94    88    92    1
   95    92    93    1
   96    92    94    1
   97    94    95    1
   98    66    96    1
   99    92    96    1
  100    96    97    1
  101    96    98    1
  102    98    99    1
  103    85   100    1
  104    98   100    1
  105    98   101    1
  106   101   102    1
  107   101   103    1
  108   101   104    1
  109   104   105    1
  110   106   107    1
  111    12   108    1
  112   106   108    1
  113   106   109    1
  114   109   110    1
  115   109   111    1
  116   111   112    1
  117   109   113    1
  118   113   114    1
  119   113   115    1
  120   115   116    1
  121    87   117    1
  122   113   117    1
  123   117   118    1
  124   117   119    1
  125   119   120    1
  126   106   121    1
  127   119   121    1
  128   119   122    1
  129   122   123    1
  130   122   124    1
  131   122   125    1
  132   125   126    1
  133   127   128    1
  134   127   129    1
  135   127   130    1
  136   127   131    1
  137   131   132    1
  138   131   133    1
  139   131   134    1
  140   134   135    1
  141   134   136    1
  142   134   137    1
  143   137   138    1
  144   137   139    1
  145   137   140    1
  146   140   141    1
  147   140   142    1
  148   140   143    1
  149   143   144    1
  150   143   145    1
  151   143   146    1
  152   146   147    1
  153   146   148    1
  154   146   149    1
  155   149   150    1
  156   149   151    1
  157   149   152    1
  158   152   153    1
  159   152   154    1
  160   152   155    1
@<TRIPOS>SUBSTRUCTURE
       1 MOL1            1 RESIDUE      1      MOL     
       2 MOL1          155 RESIDUE      1      MOL     
@<SCITEGIC>MOL_PROPERTY
feprocess Rank
SciTegic.value.IntegerValue
4

@<SCITEGIC>MOL_PROPERTY
Conf_Id
SciTegic.value.IntegerValue
554

@<SCITEGIC>MOL_PROPERTY
Probability
SciTegic.value.DoubleValue
6.81

@<SCITEGIC>MOL_PROPERTY
G
SciTegic.value.DoubleValue
584.915

@<SCITEGIC>MOL_PROPERTY
E
SciTegic.value.DoubleValue
374.339

@<SCITEGIC>MOL_PROPERTY
-TS
SciTegic.value.DoubleValue
210.576

@<SCITEGIC>MOL_PROPERTY
U+W
SciTegic.value.DoubleValue
237.519

@<SCITEGIC>MOL_PROPERTY
U
SciTegic.value.DoubleValue
323.558

@<SCITEGIC>MOL_PROPERTY
W
SciTegic.value.DoubleValue
-86.039

@<SCITEGIC>MOL_PROPERTY
W(PB)
SciTegic.value.DoubleValue
-92.229

@<SCITEGIC>MOL_PROPERTY
W(SA)
SciTegic.value.DoubleValue
6.190

@<SCITEGIC>MOL_PROPERTY
Valence
SciTegic.value.DoubleValue
148.249

@<SCITEGIC>MOL_PROPERTY
Coulomb
SciTegic.value.DoubleValue
203.237

@<SCITEGIC>MOL_PROPERTY
VdW
SciTegic.value.DoubleValue
-27.928

@<SCITEGIC>MOL_PROPERTY
VdW6
SciTegic.value.DoubleValue
-190.227

@<SCITEGIC>MOL_PROPERTY
VdW12
SciTegic.value.DoubleValue
162.299

@<SCITEGIC>MOL_PROPERTY
Bond
SciTegic.value.DoubleValue
4.739

@<SCITEGIC>MOL_PROPERTY
Angle
SciTegic.value.DoubleValue
11.996

@<SCITEGIC>MOL_PROPERTY
Pdih
SciTegic.value.DoubleValue
131.514

@<SCITEGIC>MOL_PROPERTY
Idih
SciTegic.value.DoubleValue
0.000

@<SCITEGIC>MOL_PROPERTY
Tether
SciTegic.value.DoubleValue
0.000

@<TRIPOS>MOLECULE
CD_guest-3_fast_vm2_rndm.mol2 : feprocess host+ligand conformer 5
         155         160           2
SMALL
USER_CHARGES
 
@<TRIPOS>ATOM
       1    C1      16.137908   15.169388   21.699962 C.3        1 MOL1         0.2972
       2    H1      15.066122   15.031932   21.892964 H          1 MOL1         0.0751
       3    O1      16.435716   16.502337   21.238491 O.3        1 MOL1        -0.3740
       4    C2      16.956823   14.893235   22.984643 C.3        1 MOL1         0.1003
       5    H2      16.808093   13.838156   23.249291 H          1 MOL1         0.0783
       6    O2      16.523865   15.718660   24.077812 O.3        1 MOL1        -0.5519
       7    H3      15.881467   16.376573   23.713940 H          1 MOL1         0.3769
       8    C3      18.461368   15.113364   22.717684 C.3        1 MOL1         0.1053
       9    H4      18.605479   16.181932   22.520259 H          1 MOL1         0.0783
      10    O3      19.199272   14.736468   23.883191 O.3        1 MOL1        -0.5519
      11    H5      18.685404   15.115758   24.631734 H          1 MOL1         0.3769
      12    C4      18.951567   14.313395   21.481650 C.3        1 MOL1         0.1018
      13    H6      19.080761   13.263173   21.775214 H          1 MOL1         0.0783
      14    C5      17.978368   14.411061   20.269483 C.3        1 MOL1         0.1043
      15    H7      18.095559   15.408269   19.826216 H          1 MOL1         0.0783
      16    O4      16.599639   14.244575   20.693541 O.3        1 MOL1        -0.3740
      17    C6      18.276028   13.382441   19.152447 C.3        1 MOL1         0.0138
      18    H8      19.209691   13.672241   18.651643 H          1 MOL1         0.0794
      19    H9      17.474207   13.436652   18.403868 H          1 MOL1         0.0794
      20    O5      18.392411   12.048330   19.662323 O.3        1 MOL1        -0.5486
      21    H10     18.496005   11.443660   18.895309 H          1 MOL1         0.3769
      22    C7      14.788793   20.213563   20.512108 C.3        1 MOL1         0.2972
      23    H11     14.176230   21.076189   20.220148 H          1 MOL1         0.0751
      24    O6      16.147126   20.609589   20.807347 O.3        1 MOL1        -0.3740
      25    C8      14.169508   19.471650   21.728497 C.3        1 MOL1         0.1003
      26    H12     13.192585   19.089143   21.405009 H          1 MOL1         0.0783
      27    O7      13.971290   20.339240   22.854087 O.3        1 MOL1        -0.5519
      28    H13     14.869708   20.625267   23.157110 H          1 MOL1         0.3769
      29    C9      15.044244   18.258375   22.125530 C.3        1 MOL1         0.1053
      30    H14     16.009868   18.636840   22.489126 H          1 MOL1         0.0783
      31    O8      14.389664   17.522457   23.163170 O.3        1 MOL1        -0.5519
      32    H15     14.024413   18.205390   23.770242 H          1 MOL1         0.3769
      33    C10     15.311543   17.336559   20.907566 C.3        1 MOL1         0.1018
      34    H16     14.409769   16.748352   20.694747 H          1 MOL1         0.0783
      35    C11     15.720902   18.125895   19.634872 C.3        1 MOL1         0.1043
      36    H17     16.738977   18.493444   19.789173 H          1 MOL1         0.0783
      37    O9      14.839101   19.257594   19.430384 O.3        1 MOL1        -0.3740
      38    C12     15.752725   17.269041   18.345037 C.3        1 MOL1         0.0138
      39    H18     16.641428   16.625065   18.374558 H          1 MOL1         0.0794
      40    H19     15.869797   17.940953   17.484605 H          1 MOL1         0.0794
      41    O10     14.579704   16.463420   18.182309 O.3        1 MOL1        -0.5486
      42    H20     14.662923   15.695210   18.787498 H          1 MOL1         0.3769
      43    C13     18.545076   23.817476   21.891761 C.3        1 MOL1         0.2972
      44    H21     18.943967   24.782258   22.230260 H          1 MOL1         0.0751
      45    O11     19.571257   23.000776   21.291822 O.3        1 MOL1        -0.3740
      46    C14     17.913992   23.049839   23.082508 C.3        1 MOL1         0.1003
      47    H22     17.110055   23.680230   23.484412 H          1 MOL1         0.0783
      48    O12     18.875615   22.790386   24.118719 O.3        1 MOL1        -0.5519
      49    H23     19.628625   23.414417   23.981197 H          1 MOL1         0.3769
      50    C15     17.293436   21.716828   22.610513 C.3        1 MOL1         0.1053
      51    H24     18.116338   21.071098   22.290153 H          1 MOL1         0.0783
      52    O13     16.608603   21.110344   23.709769 O.3        1 MOL1        -0.5519
      53    H25     17.229183   21.208446   24.467095 H          1 MOL1         0.3769
      54    C16     16.339364   21.910218   21.404239 C.3        1 MOL1         0.1018
      55    H26     15.397109   22.343566   21.764692 H          1 MOL1         0.0783
      56    C17     16.955634   22.825263   20.308600 C.3        1 MOL1         0.1043
      57    H27     17.758913   22.266166   19.811466 H          1 MOL1         0.0783
      58    O14     17.512030   24.024353   20.905332 O.3        1 MOL1        -0.3740
      59    C18     15.945391   23.244669   19.213978 C.3        1 MOL1         0.0138
      60    H28     15.717064   22.365773   18.595981 H          1 MOL1         0.0794
      61    H29     16.424230   23.986977   18.561389 H          1 MOL1         0.0794
      62    O15     14.735123   23.775141   19.768593 O.3        1 MOL1        -0.5486
      63    H30     14.180957   24.095753   19.023840 H          1 MOL1         0.3769
      64    C19     23.692146   22.815451   21.004908 C.3        1 MOL1         0.2972
      65    H31     24.763459   22.964940   20.818078 H          1 MOL1         0.0751
      66    O16     23.389126   21.442670   21.328427 O.3        1 MOL1        -0.3740
      67    C20     23.189004   23.720524   22.157774 C.3        1 MOL1         0.1003
      68    H32     23.307625   24.760740   21.827191 H          1 MOL1         0.0783
      69    O17     23.950690   23.529435   23.358967 O.3        1 MOL1        -0.5519
      70    H33     23.935144   22.561554   23.570379 H          1 MOL1         0.3769
      71    C21     21.681951   23.474877   22.417146 C.3        1 MOL1         0.1053
      72    H34     21.559009   22.447422   22.787349 H          1 MOL1         0.0783
      73    O18     21.227568   24.404377   23.407073 O.3        1 MOL1        -0.5519
      74    H35     21.960623   24.452229   24.062639 H          1 MOL1         0.3769
      75    C22     20.858671   23.623484   21.106357 C.3        1 MOL1         0.1018
      76    H36     20.755329   24.690034   20.869950 H          1 MOL1         0.0783
      77    C23     21.511717   22.898599   19.895201 C.3        1 MOL1         0.1043
      78    H37     21.370913   21.818560   20.024228 H          1 MOL1         0.0783
      79    O19     22.931636   23.177092   19.833845 O.3        1 MOL1        -0.3740
      80    C24     20.873523   23.282462   18.537255 C.3        1 MOL1         0.0138
      81    H38     19.849612   22.888423   18.506970 H          1 MOL1         0.0794
      82    H39     21.438096   22.788145   17.735627 H          1 MOL1         0.0794
      83    O20     20.846928   24.698036   18.317522 O.3        1 MOL1        -0.5486
      84    H40     20.142417   25.075205   18.886339 H          1 MOL1         0.3769
      85    C25     24.960338   17.713575   22.040987 C.3        1 MOL1         0.2972
      86    H41     25.572493   16.825942   22.247205 H          1 MOL1         0.0751
      87    O21     23.608008   17.360700   21.693976 O.3        1 MOL1        -0.3740
      88    C26     24.918234   18.624796   23.289194 C.3        1 MOL1         0.1003
      89    H42     25.945887   18.952675   23.493284 H          1 MOL1         0.0783
      90    O22     24.414411   17.908093   24.428411 O.3        1 MOL1        -0.5519
      91    H43     24.058046   17.046780   24.097234 H          1 MOL1         0.3769
      92    C27     24.058718   19.879696   23.016312 C.3        1 MOL1         0.1053
      93    H44     23.019392   19.559859   22.888524 H          1 MOL1         0.0783
      94    O23     24.147940   20.758712   24.140001 O.3        1 MOL1        -0.5519
      95    H45     24.045737   20.171841   24.922938 H          1 MOL1         0.3769
      96    C28     24.495095   20.605265   21.718275 C.3        1 MOL1         0.1018
      97    H46     25.403280   21.185633   21.928640 H          1 MOL1         0.0783
      98    C29     24.741224   19.630152   20.529994 C.3        1 MOL1         0.1043
      99    H47     23.760848   19.290459   20.173184 H          1 MOL1         0.0783
     100    O24     25.513942   18.474572   20.947900 O.3        1 MOL1        -0.3740
     101    C30     25.457105   20.293439   19.329447 C.3        1 MOL1         0.0138
     102    H48     24.762916   21.002706   18.858420 H          1 MOL1         0.0794
     103    H49     25.687237   19.518720   18.585683 H          1 MOL1         0.0794
     104    O25     26.653145   20.975937   19.725690 O.3        1 MOL1        -0.5486
     105    H50     27.089777   21.309414   18.911634 H          1 MOL1         0.3769
     106    C31     21.291810   14.024673   20.770569 C.3        1 MOL1         0.2972
     107    H51     20.931948   13.046622   20.426029 H          1 MOL1         0.0751
     108    O26     20.194780   14.916163   21.065890 O.3        1 MOL1        -0.3740
     109    C32     22.193737   13.880589   22.028715 C.3        1 MOL1         0.1003
     110    H52     23.062307   13.277653   21.733279 H          1 MOL1         0.0783
     111    O27     21.519393   13.214839   23.106307 O.3        1 MOL1        -0.5519
     112    H53     20.732786   13.766806   23.346223 H          1 MOL1         0.3769
     113    C33     22.712809   15.267081   22.482013 C.3        1 MOL1         0.1053
     114    H54     21.852975   15.869554   22.804287 H          1 MOL1         0.0783
     115    O28     23.630598   15.111195   23.569229 O.3        1 MOL1        -0.5519
     116    H55     23.221845   14.435133   24.155129 H          1 MOL1         0.3769
     117    C34     23.405280   15.993076   21.303034 C.3        1 MOL1         0.1018
     118    H56     24.352725   15.482717   21.084863 H          1 MOL1         0.0783
     119    C35     22.530727   15.999506   20.020688 C.3        1 MOL1         0.1043
     120    H57     21.652350   16.627506   20.204588 H          1 MOL1         0.0783
     121    O29     22.093104   14.647086   19.738804 O.3        1 MOL1        -0.3740
     122    C36     23.238265   16.580324   18.767913 C.3        1 MOL1         0.0138
     123    H58     23.061808   17.662756   18.740879 H          1 MOL1         0.0794
     124    H59     22.765338   16.158662   17.870951 H          1 MOL1         0.0794
     125    O30     24.649291   16.331593   18.745208 O.3        1 MOL1        -0.5486
     126    H60     25.059806   16.914881   19.424502 H          1 MOL1         0.3769
     127    C1      20.257288   18.798637   25.718072 C.3        1 MOL1        -0.2427
     128    H1      20.567280   19.845809   25.832034 H          1 MOL1         0.0958
     129    H2      19.175274   18.740871   25.894421 H          1 MOL1         0.0958
     130    H3      20.759743   18.210090   26.496381 H          1 MOL1         0.0958
     131    C2      20.617606   18.266009   24.316520 C.3        1 MOL1        -0.1412
     132    H4      20.320295   17.212155   24.240329 H          1 MOL1         0.0947
     133    H5      21.705980   18.294139   24.186437 H          1 MOL1         0.0947
     134    C3      19.926502   19.085740   23.206367 C.3        1 MOL1        -0.1437
     135    H6      18.837790   19.011806   23.336531 H          1 MOL1         0.0947
     136    H7      20.189612   20.147896   23.311887 H          1 MOL1         0.0947
     137    C4      20.312842   18.596235   21.793735 C.3        1 MOL1        -0.1437
     138    H8      20.127050   17.519643   21.716261 H          1 MOL1         0.0947
     139    H9      21.386050   18.745277   21.629493 H          1 MOL1         0.0947
     140    C5      19.522718   19.334564   20.696138 C.3        1 MOL1        -0.1437
     141    H10     18.450790   19.240674   20.904368 H          1 MOL1         0.0947
     142    H11     19.760426   20.403955   20.736180 H          1 MOL1         0.0947
     143    C6      19.823721   18.781103   19.287603 C.3        1 MOL1        -0.1437
     144    H12     19.511650   17.728274   19.237117 H          1 MOL1         0.0947
     145    H13     20.906733   18.804567   19.107462 H          1 MOL1         0.0947
     146    C7      19.108235   19.593308   18.186629 C.3        1 MOL1        -0.1477
     147    H14     18.033454   19.654260   18.397456 H          1 MOL1         0.0947
     148    H15     19.488747   20.621353   18.186547 H          1 MOL1         0.0947
     149    C8      19.323673   18.967725   16.798703 C.3        1 MOL1         0.0145
     150    H16     18.932480   17.946845   16.790215 H          1 MOL1         0.0921
     151    H17     20.392893   18.928824   16.573689 H          1 MOL1         0.0921
     152    N1      18.639987   19.739096   15.688964 N.4        1 MOL1        -0.5969
     153    H18     17.626084   19.793730   15.829325 H          1 MOL1         0.3603
     154    H19     18.792461   19.300889   14.773983 H          1 MOL1         0.3603
     155    H20     18.989985   20.700163   15.620850 H          1 MOL1         0.3603
@<TRIPOS>BOND
    1     1     2    1
    2     1     3    1
    3     1     4    1
    4     4     5    1
    5     4     6    1
    6     6     7    1
    7     4     8    1
    8     8     9    1
    9     8    10    1
   10    10    11    1
   11     8    12    1
   12    12    13    1
   13    12    14    1
   14    14    15    1
   15     1    16    1
   16    14    16    1
   17    14    17    1
   18    17    18    1
   19    17    19    1
   20    17    20    1
   21    20    21    1
   22    22    23    1
   23    22    24    1
   24    22    25    1
   25    25    26    1
   26    25    27    1
   27    27    28    1
   28    25    29    1
   29    29    30    1
   30    29    31    1
   31    31    32    1
   32     3    33    1
   33    29    33    1
   34    33    34    1
   35    33    35    1
   36    35    36    1
   37    22    37    1
   38    35    37    1
   39    35    38    1
   40    38    39    1
   41    38    40    1
   42    38    41    1
   43    41    42    1
   44    43    44    1
   45    43    45    1
   46    43    46    1
   47    46    47    1
   48    46    48    1
   49    48    49    1
   50    46    50    1
   51    50    51    1
   52    50    52    1
   53    52    53    1
   54    24    54    1
   55    50    54    1
   56    54    55    1
   57    54    56    1
   58    56    57    1
   59    43    58    1
   60    56    58    1
   61    56    59    1
   62    59    60    1
   63    59    61    1
   64    59    62    1
   65    62    63    1
   66    64    65    1
   67    64    66    1
   68    64    67    1
   69    67    68    1
   70    67    69    1
   71    69    70    1
   72    67    71    1
   73    71    72    1
   74    71    73    1
   75    73    74    1
   76    45    75    1
   77    71    75    1
   78    75    76    1
   79    75    77    1
   80    77    78    1
   81    64    79    1
   82    77    79    1
   83    77    80    1
   84    80    81    1
   85    80    82    1
   86    80    83    1
   87    83    84    1
   88    85    86    1
   89    85    87    1
   90    85    88    1
   91    88    89    1
   92    88    90    1
   93    90    91    1
   94    88    92    1
   95    92    93    1
   96    92    94    1
   97    94    95    1
   98    66    96    1
   99    92    96    1
  100    96    97    1
  101    96    98    1
  102    98    99    1
  103    85   100    1
  104    98   100    1
  105    98   101    1
  106   101   102    1
  107   101   103    1
  108   101   104    1
  109   104   105    1
  110   106   107    1
  111    12   108    1
  112   106   108    1
  113   106   109    1
  114   109   110    1
  115   109   111    1
  116   111   112    1
  117   109   113    1
  118   113   114    1
  119   113   115    1
  120   115   116    1
  121    87   117    1
  122   113   117    1
  123   117   118    1
  124   117   119    1
  125   119   120    1
  126   106   121    1
  127   119   121    1
  128   119   122    1
  129   122   123    1
  130   122   124    1
  131   122   125    1
  132   125   126    1
  133   127   128    1
  134   127   129    1
  135   127   130    1
  136   127   131    1
  137   131   132    1
  138   131   133    1
  139   131   134    1
  140   134   135    1
  141   134   136    1
  142   134   137    1
  143   137   138    1
  144   137   139    1
  145   137   140    1
  146   140   141    1
  147   140   142    1
  148   140   143    1
  149   143   144    1
  150   143   145    1
  151   143   146    1
  152   146   147    1
  153   146   148    1
  154   146   149    1
  155   149   150    1
  156   149   151    1
  157   149   152    1
  158   152   153    1
  159   152   154    1
  160   152   155    1
@<TRIPOS>SUBSTRUCTURE
       1 MOL1            1 RESIDUE      1      MOL     
       2 MOL1          155 RESIDUE      1      MOL     
@<SCITEGIC>MOL_PROPERTY
feprocess Rank
SciTegic.value.IntegerValue
5

@<SCITEGIC>MOL_PROPERTY
Conf_Id
SciTegic.value.IntegerValue
921

@<SCITEGIC>MOL_PROPERTY
Probability
SciTegic.value.DoubleValue
5.82

@<SCITEGIC>MOL_PROPERTY
G
SciTegic.value.DoubleValue
585.009

@<SCITEGIC>MOL_PROPERTY
E
SciTegic.value.DoubleValue
378.004

@<SCITEGIC>MOL_PROPERTY
-TS
SciTegic.value.DoubleValue
207.004

@<SCITEGIC>MOL_PROPERTY
U+W
SciTegic.value.DoubleValue
241.185

@<SCITEGIC>MOL_PROPERTY
U
SciTegic.value.DoubleValue
331.422

@<SCITEGIC>MOL_PROPERTY
W
SciTegic.value.DoubleValue
-90.237

@<SCITEGIC>MOL_PROPERTY
W(PB)
SciTegic.value.DoubleValue
-96.483

@<SCITEGIC>MOL_PROPERTY
W(SA)
SciTegic.value.DoubleValue
6.246

@<SCITEGIC>MOL_PROPERTY
Valence
SciTegic.value.DoubleValue
147.864

@<SCITEGIC>MOL_PROPERTY
Coulomb
SciTegic.value.DoubleValue
210.436

@<SCITEGIC>MOL_PROPERTY
VdW
SciTegic.value.DoubleValue
-26.878

@<SCITEGIC>MOL_PROPERTY
VdW6
SciTegic.value.DoubleValue
-182.187

@<SCITEGIC>MOL_PROPERTY
VdW12
SciTegic.value.DoubleValue
155.309

@<SCITEGIC>MOL_PROPERTY
Bond
SciTegic.value.DoubleValue
4.684

@<SCITEGIC>MOL_PROPERTY
Angle
SciTegic.value.DoubleValue
11.749

@<SCITEGIC>MOL_PROPERTY
Pdih
SciTegic.value.DoubleValue
131.432

@<SCITEGIC>MOL_PROPERTY
Idih
SciTegic.value.DoubleValue
0.000

@<SCITEGIC>MOL_PROPERTY
Tether
SciTegic.value.DoubleValue
0.000

@<TRIPOS>MOLECULE
CD_guest-3_fast_vm2_rndm.mol2 : feprocess host+ligand conformer 6
         155         160           2
SMALL
USER_CHARGES
 
@<TRIPOS>ATOM
       1    C1      16.338013   15.350265   22.037879 C.3        1 MOL1         0.2972
       2    H1      15.293202   15.251643   22.359560 H          1 MOL1         0.0751
       3    O1      16.586324   16.626652   21.415267 O.3        1 MOL1        -0.3740
       4    C2      17.288942   15.190819   23.250174 C.3        1 MOL1         0.1003
       5    H2      17.129998   14.185218   23.660936 H          1 MOL1         0.0783
       6    O2      17.020837   16.169195   24.268907 O.3        1 MOL1        -0.5519
       7    H3      16.164455   16.604464   24.037361 H          1 MOL1         0.3769
       8    C3      18.759943   15.304644   22.799343 C.3        1 MOL1         0.1053
       9    H4      18.915617   16.332900   22.456843 H          1 MOL1         0.0783
      10    O3      19.609886   15.030010   23.916775 O.3        1 MOL1        -0.5519
      11    H5      19.189470   15.513613   24.662848 H          1 MOL1         0.3769
      12    C4      19.087367   14.364349   21.613417 C.3        1 MOL1         0.1018
      13    H6      19.203982   13.340511   21.992199 H          1 MOL1         0.0783
      14    C5      17.998402   14.402390   20.502471 C.3        1 MOL1         0.1043
      15    H7      18.096220   15.356047   19.967824 H          1 MOL1         0.0783
      16    O4      16.670540   14.321414   21.082124 O.3        1 MOL1        -0.3740
      17    C6      18.146242   13.275775   19.452130 C.3        1 MOL1         0.0138
      18    H8      19.029337   13.489087   18.834813 H          1 MOL1         0.0794
      19    H9      17.271478   13.298767   18.788445 H          1 MOL1         0.0794
      20    O5      18.278304   11.984072   20.058353 O.3        1 MOL1        -0.5486
      21    H10     18.282533   11.315730   19.338658 H          1 MOL1         0.3769
      22    C7      14.686555   20.249049   20.740579 C.3        1 MOL1         0.2972
      23    H11     13.993437   21.055979   20.470739 H          1 MOL1         0.0751
      24    O6      16.005700   20.747189   21.048474 O.3        1 MOL1        -0.3740
      25    C8      14.176062   19.487530   21.989180 C.3        1 MOL1         0.1003
      26    H12     13.204956   19.045708   21.730345 H          1 MOL1         0.0783
      27    O7      14.005132   20.377388   23.103819 O.3        1 MOL1        -0.5519
      28    H13     14.756233   21.023444   23.086535 H          1 MOL1         0.3769
      29    C9      15.141323   18.334038   22.359161 C.3        1 MOL1         0.1053
      30    H14     16.093032   18.774377   22.687683 H          1 MOL1         0.0783
      31    O8      14.567224   17.572138   23.426481 O.3        1 MOL1        -0.5519
      32    H15     14.184764   18.243820   24.036224 H          1 MOL1         0.3769
      33    C10     15.424434   17.427036   21.130962 C.3        1 MOL1         0.1018
      34    H16     14.542238   16.804833   20.932633 H          1 MOL1         0.0783
      35    C11     15.765578   18.244148   19.855715 C.3        1 MOL1         0.1043
      36    H17     16.747598   18.702554   20.000117 H          1 MOL1         0.0783
      37    O9      14.790660   19.294626   19.661681 O.3        1 MOL1        -0.3740
      38    C12     15.859039   17.390896   18.566054 C.3        1 MOL1         0.0138
      39    H18     16.815512   16.851629   18.574095 H          1 MOL1         0.0794
      40    H19     15.877673   18.066917   17.700937 H          1 MOL1         0.0794
      41    O10     14.781738   16.455876   18.436627 O.3        1 MOL1        -0.5486
      42    H20     14.941027   15.732839   19.081354 H          1 MOL1         0.3769
      43    C13     18.461829   24.071893   20.823719 C.3        1 MOL1         0.2972
      44    H21     18.906508   25.063900   20.672485 H          1 MOL1         0.0751
      45    O11     19.479172   23.070802   21.052158 O.3        1 MOL1        -0.3740
      46    C14     17.447095   24.087101   22.000037 C.3        1 MOL1         0.1003
      47    H22     16.633642   24.765582   21.711361 H          1 MOL1         0.0783
      48    O12     18.030148   24.568761   23.219164 O.3        1 MOL1        -0.5519
      49    H23     18.725904   23.914983   23.481394 H          1 MOL1         0.3769
      50    C15     16.838082   22.678519   22.198152 C.3        1 MOL1         0.1053
      51    H24     17.641894   21.991110   22.496373 H          1 MOL1         0.0783
      52    O13     15.836732   22.726512   23.219577 O.3        1 MOL1        -0.5519
      53    H25     16.230069   23.268680   23.939412 H          1 MOL1         0.3769
      54    C16     16.215281   22.161909   20.878038 C.3        1 MOL1         0.1018
      55    H26     15.275638   22.702915   20.705378 H          1 MOL1         0.0783
      56    C17     17.159683   22.348083   19.658237 C.3        1 MOL1         0.1043
      57    H27     17.974102   21.621213   19.751257 H          1 MOL1         0.0783
      58    O14     17.722303   23.684577   19.646284 O.3        1 MOL1        -0.3740
      59    C18     16.463439   22.097692   18.299156 C.3        1 MOL1         0.0138
      60    H28     16.242694   21.025727   18.211724 H          1 MOL1         0.0794
      61    H29     17.164306   22.353579   17.493325 H          1 MOL1         0.0794
      62    O15     15.253085   22.853579   18.166481 O.3        1 MOL1        -0.5486
      63    H30     14.885358   22.673586   17.273995 H          1 MOL1         0.3769
      64    C19     23.413627   22.552241   22.300458 C.3        1 MOL1         0.2972
      65    H31     24.427673   22.677669   22.700945 H          1 MOL1         0.0751
      66    O16     23.273582   21.303796   21.591326 O.3        1 MOL1        -0.3740
      67    C20     22.366714   22.615283   23.443960 C.3        1 MOL1         0.1003
      68    H32     22.459485   23.603920   23.912268 H          1 MOL1         0.0783
      69    O17     22.582999   21.601856   24.439192 O.3        1 MOL1        -0.5519
      70    H33     23.525694   21.319171   24.364878 H          1 MOL1         0.3769
      71    C21     20.937573   22.481489   22.878426 C.3        1 MOL1         0.1053
      72    H34     20.845278   21.477394   22.451739 H          1 MOL1         0.0783
      73    O18     20.007807   22.642352   23.952649 O.3        1 MOL1        -0.5519
      74    H35     20.408192   22.131810   24.692892 H          1 MOL1         0.3769
      75    C22     20.668716   23.504805   21.747737 C.3        1 MOL1         0.1018
      76    H36     20.545174   24.499681   22.195783 H          1 MOL1         0.0783
      77    C23     21.823920   23.535882   20.706759 C.3        1 MOL1         0.1043
      78    H37     21.783065   22.605371   20.125361 H          1 MOL1         0.0783
      79    O19     23.108706   23.619622   21.376965 O.3        1 MOL1        -0.3740
      80    C24     21.716762   24.709362   19.703626 C.3        1 MOL1         0.0138
      81    H38     20.874200   24.512602   19.026867 H          1 MOL1         0.0794
      82    H39     22.628533   24.731549   19.091796 H          1 MOL1         0.0794
      83    O20     21.526625   25.968441   20.361523 O.3        1 MOL1        -0.5486
      84    H40     21.549439   26.670021   19.674578 H          1 MOL1         0.3769
      85    C25     25.177716   17.636801   21.306004 C.3        1 MOL1         0.2972
      86    H41     25.880728   16.806755   21.160693 H          1 MOL1         0.0751
      87    O21     23.830806   17.169222   21.513032 O.3        1 MOL1        -0.3740
      88    C26     25.582374   18.449912   22.555984 C.3        1 MOL1         0.1003
      89    H42     26.594476   18.839047   22.384036 H          1 MOL1         0.0783
      90    O22     25.586623   17.606599   23.719415 O.3        1 MOL1        -0.5519
      91    H43     24.877084   16.929895   23.587799 H          1 MOL1         0.3769
      92    C27     24.634789   19.653656   22.770154 C.3        1 MOL1         0.1053
      93    H44     23.651382   19.261064   23.059273 H          1 MOL1         0.0783
      94    O23     25.167539   20.458709   23.827430 O.3        1 MOL1        -0.5519
      95    H45     25.491531   19.812156   24.495647 H          1 MOL1         0.3769
      96    C28     24.458501   20.489272   21.470360 C.3        1 MOL1         0.1018
      97    H46     25.353532   21.104331   21.312477 H          1 MOL1         0.0783
      98    C29     24.222892   19.599737   20.218363 C.3        1 MOL1         0.1043
      99    H47     23.218500   19.170052   20.300500 H          1 MOL1         0.0783
     100    O24     25.189042   18.521581   20.167482 O.3        1 MOL1        -0.3740
     101    C30     24.268413   20.379306   18.880888 C.3        1 MOL1         0.0138
     102    H48     23.364801   20.999288   18.806236 H          1 MOL1         0.0794
     103    H49     24.234966   19.657433   18.054290 H          1 MOL1         0.0794
     104    O25     25.432252   21.205567   18.761740 O.3        1 MOL1        -0.5486
     105    H50     25.307322   21.979572   19.351659 H          1 MOL1         0.3769
     106    C31     21.344578   13.923408   20.722444 C.3        1 MOL1         0.2972
     107    H51     20.925329   12.956328   20.416472 H          1 MOL1         0.0751
     108    O26     20.302435   14.874234   21.027667 O.3        1 MOL1        -0.3740
     109    C32     22.296350   13.763687   21.942496 C.3        1 MOL1         0.1003
     110    H52     23.118043   13.109279   21.623531 H          1 MOL1         0.0783
     111    O27     21.642176   13.162816   23.069669 O.3        1 MOL1        -0.5519
     112    H53     20.934075   13.791231   23.360415 H          1 MOL1         0.3769
     113    C33     22.905985   15.130233   22.337065 C.3        1 MOL1         0.1053
     114    H54     22.094257   15.776276   22.696307 H          1 MOL1         0.0783
     115    O28     23.876231   14.950888   23.374767 O.3        1 MOL1        -0.5519
     116    H55     23.460780   14.328708   24.012178 H          1 MOL1         0.3769
     117    C34     23.567898   15.811883   21.115705 C.3        1 MOL1         0.1018
     118    H56     24.487916   15.263122   20.875116 H          1 MOL1         0.0783
     119    C35     22.631964   15.826781   19.875016 C.3        1 MOL1         0.1043
     120    H57     21.792541   16.494744   20.094231 H          1 MOL1         0.0783
     121    O29     22.127139   14.486940   19.645405 O.3        1 MOL1        -0.3740
     122    C36     23.277347   16.345346   18.564713 C.3        1 MOL1         0.0138
     123    H58     23.174236   17.437149   18.533952 H          1 MOL1         0.0794
     124    H59     22.706502   15.948695   17.714512 H          1 MOL1         0.0794
     125    O30     24.658822   15.993367   18.436001 O.3        1 MOL1        -0.5486
     126    H60     25.174015   16.710775   18.869699 H          1 MOL1         0.3769
     127    C1      19.812714   18.991501   17.009314 C.3        1 MOL1        -0.2427
     128    H1      20.892907   19.123450   16.864867 H          1 MOL1         0.0958
     129    H2      19.579494   17.925273   16.890994 H          1 MOL1         0.0958
     130    H3      19.296814   19.539791   16.210449 H          1 MOL1         0.0958
     131    C2      19.371496   19.505524   18.394998 C.3        1 MOL1        -0.1412
     132    H4      18.285119   19.392421   18.494275 H          1 MOL1         0.0947
     133    H5      19.591375   20.579648   18.468663 H          1 MOL1         0.0947
     134    C3      20.090762   18.752374   19.533452 C.3        1 MOL1        -0.1437
     135    H6      19.930260   17.671369   19.419532 H          1 MOL1         0.0947
     136    H7      21.169219   18.927814   19.442795 H          1 MOL1         0.0947
     137    C4      19.609834   19.188357   20.935592 C.3        1 MOL1        -0.1437
     138    H8      18.588646   18.826099   21.102140 H          1 MOL1         0.0947
     139    H9      19.570231   20.283448   20.997708 H          1 MOL1         0.0947
     140    C5      20.529023   18.644294   22.049961 C.3        1 MOL1        -0.1437
     141    H10     20.715778   17.575463   21.888323 H          1 MOL1         0.0947
     142    H11     21.504504   19.144126   21.995157 H          1 MOL1         0.0947
     143    C6      19.918686   18.845870   23.454540 C.3        1 MOL1        -0.1437
     144    H12     18.960904   18.312593   23.524906 H          1 MOL1         0.0947
     145    H13     19.690852   19.906153   23.619058 H          1 MOL1         0.0947
     146    C7      20.871635   18.346058   24.559566 C.3        1 MOL1        -0.1477
     147    H14     21.139890   17.297976   24.374614 H          1 MOL1         0.0947
     148    H15     21.803246   18.925645   24.532559 H          1 MOL1         0.0947
     149    C8      20.230147   18.473555   25.950038 C.3        1 MOL1         0.0145
     150    H16     19.309151   17.884957   25.986296 H          1 MOL1         0.0921
     151    H17     19.980173   19.519907   26.145077 H          1 MOL1         0.0921
     152    N1      21.140111   17.993776   27.061096 N.4        1 MOL1        -0.5969
     153    H18     21.396216   17.008216   26.942198 H          1 MOL1         0.3603
     154    H19     20.696306   18.082496   27.981344 H          1 MOL1         0.3603
     155    H20     22.011696   18.532979   27.092810 H          1 MOL1         0.3603
@<TRIPOS>BOND
    1     1     2    1
    2     1     3    1
    3     1     4    1
    4     4     5    1
    5     4     6    1
    6     6     7    1
    7     4     8    1
    8     8     9    1
    9     8    10    1
   10    10    11    1
   11     8    12    1
   12    12    13    1
   13    12    14    1
   14    14    15    1
   15     1    16    1
   16    14    16    1
   17    14    17    1
   18    17    18    1
   19    17    19    1
   20    17    20    1
   21    20    21    1
   22    22    23    1
   23    22    24    1
   24    22    25    1
   25    25    26    1
   26    25    27    1
   27    27    28    1
   28    25    29    1
   29    29    30    1
   30    29    31    1
   31    31    32    1
   32     3    33    1
   33    29    33    1
   34    33    34    1
   35    33    35    1
   36    35    36    1
   37    22    37    1
   38    35    37    1
   39    35    38    1
   40    38    39    1
   41    38    40    1
   42    38    41    1
   43    41    42    1
   44    43    44    1
   45    43    45    1
   46    43    46    1
   47    46    47    1
   48    46    48    1
   49    48    49    1
   50    46    50    1
   51    50    51    1
   52    50    52    1
   53    52    53    1
   54    24    54    1
   55    50    54    1
   56    54    55    1
   57    54    56    1
   58    56    57    1
   59    43    58    1
   60    56    58    1
   61    56    59    1
   62    59    60    1
   63    59    61    1
   64    59    62    1
   65    62    63    1
   66    64    65    1
   67    64    66    1
   68    64    67    1
   69    67    68    1
   70    67    69    1
   71    69    70    1
   72    67    71    1
   73    71    72    1
   74    71    73    1
   75    73    74    1
   76    45    75    1
   77    71    75    1
   78    75    76    1
   79    75    77    1
   80    77    78    1
   81    64    79    1
   82    77    79    1
   83    77    80    1
   84    80    81    1
   85    80    82    1
   86    80    83    1
   87    83    84    1
   88    85    86    1
   89    85    87    1
   90    85    88    1
   91    88    89    1
   92    88    90    1
   93    90    91    1
   94    88    92    1
   95    92    93    1
   96    92    94    1
   97    94    95    1
   98    66    96    1
   99    92    96    1
  100    96    97    1
  101    96    98    1
  102    98    99    1
  103    85   100    1
  104    98   100    1
  105    98   101    1
  106   101   102    1
  107   101   103    1
  108   101   104    1
  109   104   105    1
  110   106   107    1
  111    12   108    1
  112   106   108    1
  113   106   109    1
  114   109   110    1
  115   109   111    1
  116   111   112    1
  117   109   113    1
  118   113   114    1
  119   113   115    1
  120   115   116    1
  121    87   117    1
  122   113   117    1
  123   117   118    1
  124   117   119    1
  125   119   120    1
  126   106   121    1
  127   119   121    1
  128   119   122    1
  129   122   123    1
  130   122   124    1
  131   122   125    1
  132   125   126    1
  133   127   128    1
  134   127   129    1
  135   127   130    1
  136   127   131    1
  137   131   132    1
  138   131   133    1
  139   131   134    1
  140   134   135    1
  141   134   136    1
  142   134   137    1
  143   137   138    1
  144   137   139    1
  145   137   140    1
  146   140   141    1
  147   140   142    1
  148   140   143    1
  149   143   144    1
  150   143   145    1
  151   143   146    1
  152   146   147    1
  153   146   148    1
  154   146   149    1
  155   149   150    1
  156   149   151    1
  157   149   152    1
  158   152   153    1
  159   152   154    1
  160   152   155    1
@<TRIPOS>SUBSTRUCTURE
       1 MOL1            1 RESIDUE      1      MOL     
       2 MOL1          155 RESIDUE      1      MOL     
@<SCITEGIC>MOL_PROPERTY
feprocess Rank
SciTegic.value.IntegerValue
6

@<SCITEGIC>MOL_PROPERTY
Conf_Id
SciTegic.value.IntegerValue
561

@<SCITEGIC>MOL_PROPERTY
Probability
SciTegic.value.DoubleValue
5.09

@<SCITEGIC>MOL_PROPERTY
G
SciTegic.value.DoubleValue
585.089

@<SCITEGIC>MOL_PROPERTY
E
SciTegic.value.DoubleValue
378.334

@<SCITEGIC>MOL_PROPERTY
-TS
SciTegic.value.DoubleValue
206.755

@<SCITEGIC>MOL_PROPERTY
U+W
SciTegic.value.DoubleValue
241.515

@<SCITEGIC>MOL_PROPERTY
U
SciTegic.value.DoubleValue
330.265

@<SCITEGIC>MOL_PROPERTY
W
SciTegic.value.DoubleValue
-88.750

@<SCITEGIC>MOL_PROPERTY
W(PB)
SciTegic.value.DoubleValue
-94.979

@<SCITEGIC>MOL_PROPERTY
W(SA)
SciTegic.value.DoubleValue
6.229

@<SCITEGIC>MOL_PROPERTY
Valence
SciTegic.value.DoubleValue
147.828

@<SCITEGIC>MOL_PROPERTY
Coulomb
SciTegic.value.DoubleValue
209.776

@<SCITEGIC>MOL_PROPERTY
VdW
SciTegic.value.DoubleValue
-27.339

@<SCITEGIC>MOL_PROPERTY
VdW6
SciTegic.value.DoubleValue
-182.663

@<SCITEGIC>MOL_PROPERTY
VdW12
SciTegic.value.DoubleValue
155.324

@<SCITEGIC>MOL_PROPERTY
Bond
SciTegic.value.DoubleValue
4.594

@<SCITEGIC>MOL_PROPERTY
Angle
SciTegic.value.DoubleValue
11.784

@<SCITEGIC>MOL_PROPERTY
Pdih
SciTegic.value.DoubleValue
131.449

@<SCITEGIC>MOL_PROPERTY
Idih
SciTegic.value.DoubleValue
0.000

@<SCITEGIC>MOL_PROPERTY
Tether
SciTegic.value.DoubleValue
0.000

@<TRIPOS>MOLECULE
CD_guest-3_fast_vm2_rndm.mol2 : feprocess host+ligand conformer 7
         155         160           2
SMALL
USER_CHARGES
 
@<TRIPOS>ATOM
       1    C1      16.104900   15.003004   21.642730 C.3        1 MOL1         0.2972
       2    H1      15.019777   14.892865   21.765959 H          1 MOL1         0.0751
       3    O1      16.490211   16.375767   21.435922 O.3        1 MOL1        -0.3740
       4    C2      16.837529   14.490917   22.902637 C.3        1 MOL1         0.1003
       5    H2      16.638574   13.415159   22.994279 H          1 MOL1         0.0783
       6    O2      16.365327   15.167611   24.079128 O.3        1 MOL1        -0.5519
       7    H3      15.956902   16.019104   23.783161 H          1 MOL1         0.3769
       8    C3      18.359615   14.690938   22.744378 C.3        1 MOL1         0.1053
       9    H4      18.548612   15.768591   22.721659 H          1 MOL1         0.0783
      10    O3      19.029870   14.113535   23.867244 O.3        1 MOL1        -0.5519
      11    H5      18.492427   14.384688   24.645322 H          1 MOL1         0.3769
      12    C4      18.895622   14.093823   21.418311 C.3        1 MOL1         0.1018
      13    H6      19.024615   13.010796   21.545602 H          1 MOL1         0.0783
      14    C5      17.983081   14.394675   20.191535 C.3        1 MOL1         0.1043
      15    H7      18.157698   15.438165   19.900277 H          1 MOL1         0.0783
      16    O4      16.577207   14.233682   20.517997 O.3        1 MOL1        -0.3740
      17    C6      18.306490   13.521724   18.956034 C.3        1 MOL1         0.0138
      18    H8      19.281968   13.830917   18.556561 H          1 MOL1         0.0794
      19    H9      17.556758   13.721866   18.178755 H          1 MOL1         0.0794
      20    O5      18.333140   12.125214   19.275383 O.3        1 MOL1        -0.5486
      21    H10     18.469149   11.630151   18.438081 H          1 MOL1         0.3769
      22    C7      14.943331   20.147811   20.633083 C.3        1 MOL1         0.2972
      23    H11     14.310808   20.990759   20.326973 H          1 MOL1         0.0751
      24    O6      16.303421   20.575316   20.872213 O.3        1 MOL1        -0.3740
      25    C8      14.366164   19.447182   21.897773 C.3        1 MOL1         0.1003
      26    H12     13.371657   19.069836   21.626220 H          1 MOL1         0.0783
      27    O7      14.226578   20.345328   23.008160 O.3        1 MOL1        -0.5519
      28    H13     15.140688   20.627689   23.264273 H          1 MOL1         0.3769
      29    C9      15.238824   18.232778   22.294540 C.3        1 MOL1         0.1053
      30    H14     16.223746   18.605150   22.606081 H          1 MOL1         0.0783
      31    O8      14.624602   17.526216   23.376856 O.3        1 MOL1        -0.5519
      32    H15     14.314848   18.223978   23.996715 H          1 MOL1         0.3769
      33    C10     15.433810   17.283359   21.088338 C.3        1 MOL1         0.1018
      34    H16     14.486622   16.765268   20.888325 H          1 MOL1         0.0783
      35    C11     15.882287   18.042299   19.812280 C.3        1 MOL1         0.1043
      36    H17     16.892393   18.424913   19.989564 H          1 MOL1         0.0783
      37    O9      14.984516   19.156136   19.580507 O.3        1 MOL1        -0.3740
      38    C12     15.957489   17.169894   18.531608 C.3        1 MOL1         0.0138
      39    H18     16.970197   16.754393   18.454627 H          1 MOL1         0.0794
      40    H19     15.813399   17.818478   17.657222 H          1 MOL1         0.0794
      41    O10     15.004042   16.100730   18.514232 O.3        1 MOL1        -0.5486
      42    H20     15.339257   15.404373   19.124938 H          1 MOL1         0.3769
      43    C13     18.624066   23.897204   21.810284 C.3        1 MOL1         0.2972
      44    H21     18.990877   24.882177   22.126291 H          1 MOL1         0.0751
      45    O11     19.656865   23.132427   21.155717 O.3        1 MOL1        -0.3740
      46    C14     18.088736   23.102627   23.031292 C.3        1 MOL1         0.1003
      47    H22     17.271521   23.692833   23.466083 H          1 MOL1         0.0783
      48    O12     19.100139   22.892695   24.030078 O.3        1 MOL1        -0.5519
      49    H23     19.810390   23.559766   23.872337 H          1 MOL1         0.3769
      50    C15     17.515789   21.739542   22.589112 C.3        1 MOL1         0.1053
      51    H24     18.353111   21.136004   22.220888 H          1 MOL1         0.0783
      52    O13     16.917809   21.105074   23.722480 O.3        1 MOL1        -0.5519
      53    H25     17.575122   21.238001   24.441545 H          1 MOL1         0.3769
      54    C16     16.487830   21.889520   21.440746 C.3        1 MOL1         0.1018
      55    H26     15.555393   22.296119   21.853580 H          1 MOL1         0.0783
      56    C17     17.007466   22.821416   20.310385 C.3        1 MOL1         0.1043
      57    H27     17.812375   22.297771   19.778077 H          1 MOL1         0.0783
      58    O14     17.531506   24.048789   20.878605 O.3        1 MOL1        -0.3740
      59    C18     15.928039   23.188643   19.263948 C.3        1 MOL1         0.0138
      60    H28     15.713615   22.298003   18.657964 H          1 MOL1         0.0794
      61    H29     16.340499   23.950626   18.589061 H          1 MOL1         0.0794
      62    O15     14.720645   23.663238   19.873193 O.3        1 MOL1        -0.5486
      63    H30     14.119998   23.958537   19.154471 H          1 MOL1         0.3769
      64    C19     23.732143   22.916055   20.817763 C.3        1 MOL1         0.2972
      65    H31     24.809914   23.010471   20.632533 H          1 MOL1         0.0751
      66    O16     23.355517   21.548051   21.083721 O.3        1 MOL1        -0.3740
      67    C20     23.275673   23.827421   21.985661 C.3        1 MOL1         0.1003
      68    H32     23.429613   24.865017   21.661291 H          1 MOL1         0.0783
      69    O17     24.038624   23.601631   23.179755 O.3        1 MOL1        -0.5519
      70    H33     23.849075   22.674442   23.471854 H          1 MOL1         0.3769
      71    C21     21.764307   23.635002   22.256830 C.3        1 MOL1         0.1053
      72    H34     21.614563   22.612688   22.631559 H          1 MOL1         0.0783
      73    O18     21.350880   24.579666   23.250921 O.3        1 MOL1        -0.5519
      74    H35     22.091369   24.606664   23.898926 H          1 MOL1         0.3769
      75    C22     20.920851   23.801661   20.959854 C.3        1 MOL1         0.1018
      76    H36     20.779702   24.870659   20.753049 H          1 MOL1         0.0783
      77    C23     21.561173   23.128873   19.711561 C.3        1 MOL1         0.1043
      78    H37     21.379104   22.050956   19.781700 H          1 MOL1         0.0783
      79    O19     22.992322   23.353029   19.661149 O.3        1 MOL1        -0.3740
      80    C24     20.938872   23.610022   18.379241 C.3        1 MOL1         0.0138
      81    H38     19.890257   23.284440   18.348363 H          1 MOL1         0.0794
      82    H39     21.461675   23.116073   17.549384 H          1 MOL1         0.0794
      83    O20     21.009216   25.034083   18.233618 O.3        1 MOL1        -0.5486
      84    H40     20.629818   25.263894   17.357563 H          1 MOL1         0.3769
      85    C25     24.655316   17.817313   22.219642 C.3        1 MOL1         0.2972
      86    H41     25.203360   16.934955   22.573765 H          1 MOL1         0.0751
      87    O21     23.410912   17.454294   21.588718 O.3        1 MOL1        -0.3740
      88    C26     24.343951   18.759739   23.405942 C.3        1 MOL1         0.1003
      89    H42     25.304326   19.070569   23.837485 H          1 MOL1         0.0783
      90    O22     23.565679   18.087275   24.410795 O.3        1 MOL1        -0.5519
      91    H43     23.604838   17.121276   24.208774 H          1 MOL1         0.3769
      92    C27     23.600288   20.021828   22.914358 C.3        1 MOL1         0.1053
      93    H44     22.615311   19.713000   22.551066 H          1 MOL1         0.0783
      94    O23     23.441632   20.921209   24.014315 O.3        1 MOL1        -0.5519
      95    H45     23.149081   20.347289   24.757969 H          1 MOL1         0.3769
      96    C28     24.330663   20.708439   21.732364 C.3        1 MOL1         0.1018
      97    H46     25.182282   21.281522   22.122351 H          1 MOL1         0.0783
      98    C29     24.810688   19.695567   20.653106 C.3        1 MOL1         0.1043
      99    H47     23.927840   19.352551   20.099093 H          1 MOL1         0.0783
     100    O24     25.451693   18.548874   21.265164 O.3        1 MOL1        -0.3740
     101    C30     25.784295   20.311826   19.620364 C.3        1 MOL1         0.0138
     102    H48     25.221172   21.006949   18.982932 H          1 MOL1         0.0794
     103    H49     26.163090   19.509510   18.973048 H          1 MOL1         0.0794
     104    O25     26.872114   21.002006   20.247942 O.3        1 MOL1        -0.5486
     105    H50     27.486383   21.296580   19.540426 H          1 MOL1         0.3769
     106    C31     21.273386   13.951338   20.800993 C.3        1 MOL1         0.2972
     107    H51     20.964464   12.950607   20.472223 H          1 MOL1         0.0751
     108    O26     20.142450   14.768179   21.162018 O.3        1 MOL1        -0.3740
     109    C32     22.233492   13.875577   22.018895 C.3        1 MOL1         0.1003
     110    H52     23.131683   13.337638   21.688531 H          1 MOL1         0.0783
     111    O27     21.648902   13.160849   23.117625 O.3        1 MOL1        -0.5519
     112    H53     20.775411   13.583143   23.318030 H          1 MOL1         0.3769
     113    C33     22.668242   15.297777   22.455856 C.3        1 MOL1         0.1053
     114    H54     21.779854   15.842457   22.804680 H          1 MOL1         0.0783
     115    O28     23.619624   15.193367   23.520924 O.3        1 MOL1        -0.5519
     116    H55     23.277407   14.470906   24.095026 H          1 MOL1         0.3769
     117    C34     23.270080   16.064092   21.246898 C.3        1 MOL1         0.1018
     118    H56     24.238484   15.616673   20.987734 H          1 MOL1         0.0783
     119    C35     22.339556   16.005327   20.006258 C.3        1 MOL1         0.1043
     120    H57     21.430763   16.577109   20.230213 H          1 MOL1         0.0783
     121    O29     21.979155   14.628277   19.736545 O.3        1 MOL1        -0.3740
     122    C36     22.960123   16.626684   18.729711 C.3        1 MOL1         0.0138
     123    H58     22.874124   17.718073   18.799792 H          1 MOL1         0.0794
     124    H59     22.366643   16.311076   17.861445 H          1 MOL1         0.0794
     125    O30     24.335233   16.269557   18.545762 O.3        1 MOL1        -0.5486
     126    H60     24.853524   16.730536   19.241109 H          1 MOL1         0.3769
     127    C1      19.867936   20.074273   26.107338 C.3        1 MOL1        -0.2427
     128    H1      20.544867   20.624126   25.441656 H          1 MOL1         0.0958
     129    H2      18.877881   20.543208   26.050670 H          1 MOL1         0.0958
     130    H3      20.240262   20.201697   27.131656 H          1 MOL1         0.0958
     131    C2      19.795950   18.573742   25.741546 C.3        1 MOL1        -0.1412
     132    H4      19.190703   18.054011   26.496992 H          1 MOL1         0.0947
     133    H5      20.801638   18.132682   25.794361 H          1 MOL1         0.0947
     134    C3      19.184079   18.306535   24.345816 C.3        1 MOL1        -0.1437
     135    H6      19.047808   17.225080   24.234742 H          1 MOL1         0.0947
     136    H7      18.183010   18.753233   24.288219 H          1 MOL1         0.0947
     137    C4      20.069977   18.830622   23.192902 C.3        1 MOL1        -0.1437
     138    H8      21.054754   18.351404   23.259138 H          1 MOL1         0.0947
     139    H9      20.226926   19.910485   23.313254 H          1 MOL1         0.0947
     140    C5      19.469537   18.564371   21.795018 C.3        1 MOL1        -0.1437
     141    H10     19.453942   17.485323   21.597088 H          1 MOL1         0.0947
     142    H11     18.427357   18.906155   21.771150 H          1 MOL1         0.0947
     143    C6      20.277952   19.286974   20.693476 C.3        1 MOL1        -0.1437
     144    H12     21.315066   18.927971   20.705603 H          1 MOL1         0.0947
     145    H13     20.316350   20.361691   20.916810 H          1 MOL1         0.0947
     146    C7      19.668917   19.075802   19.291537 C.3        1 MOL1        -0.1477
     147    H14     19.556752   18.001156   19.095161 H          1 MOL1         0.0947
     148    H15     18.667175   19.522830   19.259153 H          1 MOL1         0.0947
     149    C8      20.537073   19.712972   18.194115 C.3        1 MOL1         0.0145
     150    H16     21.547277   19.298222   18.232433 H          1 MOL1         0.0921
     151    H17     20.600781   20.791056   18.356194 H          1 MOL1         0.0921
     152    N1      19.990455   19.485447   16.800376 N.4        1 MOL1        -0.5969
     153    H18     19.929907   18.487966   16.572355 H          1 MOL1         0.3603
     154    H19     20.582570   19.919817   16.084136 H          1 MOL1         0.3603
     155    H20     19.050286   19.879013   16.690637 H          1 MOL1         0.3603
@<TRIPOS>BOND
    1     1     2    1
    2     1     3    1
    3     1     4    1
    4     4     5    1
    5     4     6    1
    6     6     7    1
    7     4     8    1
    8     8     9    1
    9     8    10    1
   10    10    11    1
   11     8    12    1
   12    12    13    1
   13    12    14    1
   14    14    15    1
   15     1    16    1
   16    14    16    1
   17    14    17    1
   18    17    18    1
   19    17    19    1
   20    17    20    1
   21    20    21    1
   22    22    23    1
   23    22    24    1
   24    22    25    1
   25    25    26    1
   26    25    27    1
   27    27    28    1
   28    25    29    1
   29    29    30    1
   30    29    31    1
   31    31    32    1
   32     3    33    1
   33    29    33    1
   34    33    34    1
   35    33    35    1
   36    35    36    1
   37    22    37    1
   38    35    37    1
   39    35    38    1
   40    38    39    1
   41    38    40    1
   42    38    41    1
   43    41    42    1
   44    43    44    1
   45    43    45    1
   46    43    46    1
   47    46    47    1
   48    46    48    1
   49    48    49    1
   50    46    50    1
   51    50    51    1
   52    50    52    1
   53    52    53    1
   54    24    54    1
   55    50    54    1
   56    54    55    1
   57    54    56    1
   58    56    57    1
   59    43    58    1
   60    56    58    1
   61    56    59    1
   62    59    60    1
   63    59    61    1
   64    59    62    1
   65    62    63    1
   66    64    65    1
   67    64    66    1
   68    64    67    1
   69    67    68    1
   70    67    69    1
   71    69    70    1
   72    67    71    1
   73    71    72    1
   74    71    73    1
   75    73    74    1
   76    45    75    1
   77    71    75    1
   78    75    76    1
   79    75    77    1
   80    77    78    1
   81    64    79    1
   82    77    79    1
   83    77    80    1
   84    80    81    1
   85    80    82    1
   86    80    83    1
   87    83    84    1
   88    85    86    1
   89    85    87    1
   90    85    88    1
   91    88    89    1
   92    88    90    1
   93    90    91    1
   94    88    92    1
   95    92    93    1
   96    92    94    1
   97    94    95    1
   98    66    96    1
   99    92    96    1
  100    96    97    1
  101    96    98    1
  102    98    99    1
  103    85   100    1
  104    98   100    1
  105    98   101    1
  106   101   102    1
  107   101   103    1
  108   101   104    1
  109   104   105    1
  110   106   107    1
  111    12   108    1
  112   106   108    1
  113   106   109    1
  114   109   110    1
  115   109   111    1
  116   111   112    1
  117   109   113    1
  118   113   114    1
  119   113   115    1
  120   115   116    1
  121    87   117    1
  122   113   117    1
  123   117   118    1
  124   117   119    1
  125   119   120    1
  126   106   121    1
  127   119   121    1
  128   119   122    1
  129   122   123    1
  130   122   124    1
  131   122   125    1
  132   125   126    1
  133   127   128    1
  134   127   129    1
  135   127   130    1
  136   127   131    1
  137   131   132    1
  138   131   133    1
  139   131   134    1
  140   134   135    1
  141   134   136    1
  142   134   137    1
  143   137   138    1
  144   137   139    1
  145   137   140    1
  146   140   141    1
  147   140   142    1
  148   140   143    1
  149   143   144    1
  150   143   145    1
  151   143   146    1
  152   146   147    1
  153   146   148    1
  154   146   149    1
  155   149   150    1
  156   149   151    1
  157   149   152    1
  158   152   153    1
  159   152   154    1
  160   152   155    1
@<TRIPOS>SUBSTRUCTURE
       1 MOL1            1 RESIDUE      1      MOL     
       2 MOL1          155 RESIDUE      1      MOL     
@<SCITEGIC>MOL_PROPERTY
feprocess Rank
SciTegic.value.IntegerValue
7

@<SCITEGIC>MOL_PROPERTY
Conf_Id
SciTegic.value.IntegerValue
390

@<SCITEGIC>MOL_PROPERTY
Probability
SciTegic.value.DoubleValue
0.98

@<SCITEGIC>MOL_PROPERTY
G
SciTegic.value.DoubleValue
586.071

@<SCITEGIC>MOL_PROPERTY
E
SciTegic.value.DoubleValue
378.559

@<SCITEGIC>MOL_PROPERTY
-TS
SciTegic.value.DoubleValue
207.512

@<SCITEGIC>MOL_PROPERTY
U+W
SciTegic.value.DoubleValue
241.740

@<SCITEGIC>MOL_PROPERTY
U
SciTegic.value.DoubleValue
331.684

@<SCITEGIC>MOL_PROPERTY
W
SciTegic.value.DoubleValue
-89.944

@<SCITEGIC>MOL_PROPERTY
W(PB)
SciTegic.value.DoubleValue
-96.138

@<SCITEGIC>MOL_PROPERTY
W(SA)
SciTegic.value.DoubleValue
6.194

@<SCITEGIC>MOL_PROPERTY
Valence
SciTegic.value.DoubleValue
147.594

@<SCITEGIC>MOL_PROPERTY
Coulomb
SciTegic.value.DoubleValue
211.863

@<SCITEGIC>MOL_PROPERTY
VdW
SciTegic.value.DoubleValue
-27.773

@<SCITEGIC>MOL_PROPERTY
VdW6
SciTegic.value.DoubleValue
-185.390

@<SCITEGIC>MOL_PROPERTY
VdW12
SciTegic.value.DoubleValue
157.617

@<SCITEGIC>MOL_PROPERTY
Bond
SciTegic.value.DoubleValue
4.692

@<SCITEGIC>MOL_PROPERTY
Angle
SciTegic.value.DoubleValue
12.406

@<SCITEGIC>MOL_PROPERTY
Pdih
SciTegic.value.DoubleValue
130.497

@<SCITEGIC>MOL_PROPERTY
Idih
SciTegic.value.DoubleValue
0.000

@<SCITEGIC>MOL_PROPERTY
Tether
SciTegic.value.DoubleValue
0.000

@<TRIPOS>MOLECULE
CD_guest-3_fast_vm2_rndm.mol2 : feprocess host+ligand conformer 8
         155         160           2
SMALL
USER_CHARGES
 
@<TRIPOS>ATOM
       1    C1      16.200009   15.242198   20.949174 C.3        1 MOL1         0.2972
       2    H1      15.166578   14.977194   20.692396 H          1 MOL1         0.0751
       3    O1      16.330309   16.643779   21.253810 O.3        1 MOL1        -0.3740
       4    C2      16.642086   14.459717   22.210544 C.3        1 MOL1         0.1003
       5    H2      16.548059   13.389289   21.985655 H          1 MOL1         0.0783
       6    O2      15.794260   14.787700   23.323302 O.3        1 MOL1        -0.5519
       7    H3      15.514203   15.728367   23.203337 H          1 MOL1         0.3769
       8    C3      18.122915   14.747809   22.558801 C.3        1 MOL1         0.1053
       9    H4      18.203249   15.797332   22.872018 H          1 MOL1         0.0783
      10    O3      18.518813   13.887818   23.632335 O.3        1 MOL1        -0.5519
      11    H5      17.758005   13.899687   24.256753 H          1 MOL1         0.3769
      12    C4      19.028226   14.537410   21.315993 C.3        1 MOL1         0.1018
      13    H6      19.079714   13.465296   21.085017 H          1 MOL1         0.0783
      14    C5      18.479309   15.293869   20.078899 C.3        1 MOL1         0.1043
      15    H7      18.533313   16.368537   20.287823 H          1 MOL1         0.0783
      16    O4      17.096133   14.922512   19.861962 O.3        1 MOL1        -0.3740
      17    C6      19.287349   15.043225   18.780136 C.3        1 MOL1         0.0138
      18    H8      20.177564   15.685065   18.797623 H          1 MOL1         0.0794
      19    H9      18.680692   15.356419   17.920315 H          1 MOL1         0.0794
      20    O5      19.689719   13.677151   18.628429 O.3        1 MOL1        -0.5486
      21    H10     20.371142   13.495229   19.312344 H          1 MOL1         0.3769
      22    C7      14.690093   20.366770   20.521177 C.3        1 MOL1         0.2972
      23    H11     14.096148   21.236847   20.212686 H          1 MOL1         0.0751
      24    O6      15.986484   20.754115   21.021014 O.3        1 MOL1        -0.3740
      25    C8      13.957271   19.533380   21.605672 C.3        1 MOL1         0.1003
      26    H12     13.039787   19.140476   21.148394 H          1 MOL1         0.0783
      27    O7      13.601153   20.329656   22.745239 O.3        1 MOL1        -0.5519
      28    H13     14.439167   20.704740   23.116724 H          1 MOL1         0.3769
      29    C9      14.832824   18.328543   22.028048 C.3        1 MOL1         0.1053
      30    H14     15.736315   18.715479   22.519088 H          1 MOL1         0.0783
      31    O8      14.109391   17.496050   22.940588 O.3        1 MOL1        -0.5519
      32    H15     13.687350   18.115690   23.576342 H          1 MOL1         0.3769
      33    C10     15.265833   17.496577   20.794796 C.3        1 MOL1         0.1018
      34    H16     14.394373   16.924730   20.450538 H          1 MOL1         0.0783
      35    C11     15.807964   18.377364   19.631271 C.3        1 MOL1         0.1043
      36    H17     16.785165   18.773158   19.930046 H          1 MOL1         0.0783
      37    O9      14.906440   19.487835   19.395735 O.3        1 MOL1        -0.3740
      38    C12     16.021849   17.627969   18.291859 C.3        1 MOL1         0.0138
      39    H18     16.985804   17.106510   18.330283 H          1 MOL1         0.0794
      40    H19     16.093340   18.370802   17.486212 H          1 MOL1         0.0794
      41    O10     14.982032   16.688184   18.000845 O.3        1 MOL1        -0.5486
      42    H20     15.255395   15.828468   18.389261 H          1 MOL1         0.3769
      43    C13     18.427355   23.801614   22.214793 C.3        1 MOL1         0.2972
      44    H21     18.910561   24.729607   22.547499 H          1 MOL1         0.0751
      45    O11     19.396832   22.804533   21.833369 O.3        1 MOL1        -0.3740
      46    C14     17.555022   23.230700   23.355907 C.3        1 MOL1         0.1003
      47    H22     16.780048   23.974061   23.584052 H          1 MOL1         0.0783
      48    O12     18.347350   22.990283   24.530561 O.3        1 MOL1        -0.5519
      49    H23     19.292792   23.130751   24.275826 H          1 MOL1         0.3769
      50    C15     16.858272   21.928261   22.907947 C.3        1 MOL1         0.1053
      51    H24     17.633330   21.167648   22.780952 H          1 MOL1         0.0783
      52    O13     15.950470   21.506871   23.928887 O.3        1 MOL1        -0.5519
      53    H25     16.449610   21.622556   24.768662 H          1 MOL1         0.3769
      54    C16     16.124273   22.085929   21.551322 C.3        1 MOL1         0.1018
      55    H26     15.153750   22.569506   21.724987 H          1 MOL1         0.0783
      56    C17     16.947467   22.879831   20.495180 C.3        1 MOL1         0.1043
      57    H27     17.732086   22.210522   20.122376 H          1 MOL1         0.0783
      58    O14     17.573705   24.050506   21.079646 O.3        1 MOL1        -0.3740
      59    C18     16.114193   23.325283   19.270109 C.3        1 MOL1         0.0138
      60    H28     15.857527   22.434660   18.680594 H          1 MOL1         0.0794
      61    H29     16.738862   23.967873   18.635024 H          1 MOL1         0.0794
      62    O15     14.918280   24.014528   19.653986 O.3        1 MOL1        -0.5486
      63    H30     14.482425   24.335398   18.834390 H          1 MOL1         0.3769
      64    C19     23.526975   22.633078   21.107616 C.3        1 MOL1         0.2972
      65    H31     24.549149   22.922348   20.832081 H          1 MOL1         0.0751
      66    O16     23.417059   21.215725   21.346175 O.3        1 MOL1        -0.3740
      67    C20     23.092633   23.359378   22.408730 C.3        1 MOL1         0.1003
      68    H32     23.159866   24.438616   22.219369 H          1 MOL1         0.0783
      69    O17     23.959034   23.022203   23.504046 O.3        1 MOL1        -0.5519
      70    H33     24.204223   22.067310   23.408042 H          1 MOL1         0.3769
      71    C21     21.620130   23.030435   22.759299 C.3        1 MOL1         0.1053
      72    H34     21.549432   21.961318   23.003155 H          1 MOL1         0.0783
      73    O18     21.207160   23.814593   23.883478 O.3        1 MOL1        -0.5519
      74    H35     21.958062   23.762895   24.516957 H          1 MOL1         0.3769
      75    C22     20.708640   23.316743   21.542100 C.3        1 MOL1         0.1018
      76    H36     20.691609   24.400181   21.363183 H          1 MOL1         0.0783
      77    C23     21.226058   22.611326   20.261868 C.3        1 MOL1         0.1043
      78    H37     21.167360   21.526738   20.412464 H          1 MOL1         0.0783
      79    O19     22.606563   22.991333   20.051418 O.3        1 MOL1        -0.3740
      80    C24     20.418445   22.948494   18.980525 C.3        1 MOL1         0.0138
      81    H38     19.577996   22.249705   18.902248 H          1 MOL1         0.0794
      82    H39     21.059057   22.773690   18.105890 H          1 MOL1         0.0794
      83    O20     19.917454   24.291137   18.964401 O.3        1 MOL1        -0.5486
      84    H40     19.207134   24.348985   19.644289 H          1 MOL1         0.3769
      85    C25     25.252093   17.576395   20.863768 C.3        1 MOL1         0.2972
      86    H41     25.887795   16.704860   20.660939 H          1 MOL1         0.0751
      87    O21     23.872905   17.191341   21.064916 O.3        1 MOL1        -0.3740
      88    C26     25.771427   18.385797   22.081595 C.3        1 MOL1         0.1003
      89    H42     26.740388   18.813567   21.792299 H          1 MOL1         0.0783
      90    O22     25.967632   17.565602   23.241460 O.3        1 MOL1        -0.5519
      91    H43     25.073347   17.247844   23.521666 H          1 MOL1         0.3769
      92    C27     24.807009   19.559537   22.376729 C.3        1 MOL1         0.1053
      93    H44     23.831978   19.145018   22.667163 H          1 MOL1         0.0783
      94    O23     25.327301   20.357856   23.444215 O.3        1 MOL1        -0.5519
      95    H45     25.636781   19.714609   24.120276 H          1 MOL1         0.3769
      96    C28     24.609573   20.438683   21.116036 C.3        1 MOL1         0.1018
      97    H46     25.500401   21.070409   21.003453 H          1 MOL1         0.0783
      98    C29     24.383901   19.615416   19.813942 C.3        1 MOL1         0.1043
      99    H47     23.356442   19.235961   19.830375 H          1 MOL1         0.0783
     100    O24     25.290219   18.484894   19.743763 O.3        1 MOL1        -0.3740
     101    C30     24.548094   20.453431   18.523323 C.3        1 MOL1         0.0138
     102    H48     23.712534   21.162675   18.457704 H          1 MOL1         0.0794
     103    H49     24.475870   19.781375   17.657870 H          1 MOL1         0.0794
     104    O25     25.790965   21.166138   18.497208 O.3        1 MOL1        -0.5486
     105    H50     25.847440   21.637013   17.637356 H          1 MOL1         0.3769
     106    C31     21.280868   14.181408   22.188379 C.3        1 MOL1         0.2972
     107    H51     20.797269   13.258950   22.534695 H          1 MOL1         0.0751
     108    O26     20.334358   15.082410   21.579782 O.3        1 MOL1        -0.3740
     109    C32     21.961909   14.904476   23.374817 C.3        1 MOL1         0.1003
     110    H52     22.723468   14.223617   23.776963 H          1 MOL1         0.0783
     111    O27     21.018933   15.224251   24.411378 O.3        1 MOL1        -0.5519
     112    H53     20.190152   14.723453   24.215329 H          1 MOL1         0.3769
     113    C33     22.668091   16.190400   22.893297 C.3        1 MOL1         0.1053
     114    H54     21.901163   16.887185   22.543205 H          1 MOL1         0.0783
     115    O28     23.359319   16.764890   24.003589 O.3        1 MOL1        -0.5519
     116    H55     22.719252   16.694038   24.748389 H          1 MOL1         0.3769
     117    C34     23.622986   15.920275   21.701723 C.3        1 MOL1         0.1018
     118    H56     24.543539   15.454559   22.077776 H          1 MOL1         0.0783
     119    C35     22.969622   15.017032   20.615226 C.3        1 MOL1         0.1043
     120    H57     22.225269   15.620220   20.079869 H          1 MOL1         0.0783
     121    O29     22.301742   13.877320   21.214866 O.3        1 MOL1        -0.3740
     122    C36     23.978471   14.499469   19.562446 C.3        1 MOL1         0.0138
     123    H58     24.297452   15.346859   18.940488 H          1 MOL1         0.0794
     124    H59     23.464224   13.786281   18.904313 H          1 MOL1         0.0794
     125    O30     25.122749   13.884563   20.167548 O.3        1 MOL1        -0.5486
     126    H60     25.678948   13.515426   19.447113 H          1 MOL1         0.3769
     127    C1      19.254925   18.374509   25.679008 C.3        1 MOL1        -0.2427
     128    H1      19.232862   17.277181   25.641578 H          1 MOL1         0.0958
     129    H2      20.268858   18.684808   25.962882 H          1 MOL1         0.0958
     130    H3      18.566870   18.700404   26.469464 H          1 MOL1         0.0958
     131    C2      18.851152   18.982441   24.320127 C.3        1 MOL1        -0.1412
     132    H4      18.855195   20.078102   24.398453 H          1 MOL1         0.0947
     133    H5      17.822983   18.679928   24.076497 H          1 MOL1         0.0947
     134    C3      19.811384   18.536085   23.197949 C.3        1 MOL1        -0.1437
     135    H6      20.822337   18.910521   23.411306 H          1 MOL1         0.0947
     136    H7      19.866710   17.440634   23.194113 H          1 MOL1         0.0947
     137    C4      19.352608   19.021467   21.807576 C.3        1 MOL1        -0.1437
     138    H8      19.227900   20.110185   21.821571 H          1 MOL1         0.0947
     139    H9      18.370231   18.585979   21.584216 H          1 MOL1         0.0947
     140    C5      20.360749   18.660847   20.696185 C.3        1 MOL1        -0.1437
     141    H10     21.297347   19.205364   20.875267 H          1 MOL1         0.0947
     142    H11     20.606705   17.592650   20.739405 H          1 MOL1         0.0947
     143    C6      19.798807   19.001309   19.298540 C.3        1 MOL1        -0.1437
     144    H12     19.394813   20.021419   19.299243 H          1 MOL1         0.0947
     145    H13     18.957235   18.334375   19.075963 H          1 MOL1         0.0947
     146    C7      20.863570   18.870261   18.190748 C.3        1 MOL1        -0.1477
     147    H14     21.653581   19.612625   18.355246 H          1 MOL1         0.0947
     148    H15     21.332720   17.878359   18.237505 H          1 MOL1         0.0947
     149    C8      20.248840   19.086000   16.797734 C.3        1 MOL1         0.0145
     150    H16     19.795549   20.079505   16.744099 H          1 MOL1         0.0921
     151    H17     19.468267   18.341263   16.620549 H          1 MOL1         0.0921
     152    N1      21.262333   18.973854   15.678031 N.4        1 MOL1        -0.5969
     153    H18     22.006357   19.673415   15.763182 H          1 MOL1         0.3603
     154    H19     20.827295   19.111654   14.759183 H          1 MOL1         0.3603
     155    H20     21.710608   18.052037   15.659957 H          1 MOL1         0.3603
@<TRIPOS>BOND
    1     1     2    1
    2     1     3    1
    3     1     4    1
    4     4     5    1
    5     4     6    1
    6     6     7    1
    7     4     8    1
    8     8     9    1
    9     8    10    1
   10    10    11    1
   11     8    12    1
   12    12    13    1
   13    12    14    1
   14    14    15    1
   15     1    16    1
   16    14    16    1
   17    14    17    1
   18    17    18    1
   19    17    19    1
   20    17    20    1
   21    20    21    1
   22    22    23    1
   23    22    24    1
   24    22    25    1
   25    25    26    1
   26    25    27    1
   27    27    28    1
   28    25    29    1
   29    29    30    1
   30    29    31    1
   31    31    32    1
   32     3    33    1
   33    29    33    1
   34    33    34    1
   35    33    35    1
   36    35    36    1
   37    22    37    1
   38    35    37    1
   39    35    38    1
   40    38    39    1
   41    38    40    1
   42    38    41    1
   43    41    42    1
   44    43    44    1
   45    43    45    1
   46    43    46    1
   47    46    47    1
   48    46    48    1
   49    48    49    1
   50    46    50    1
   51    50    51    1
   52    50    52    1
   53    52    53    1
   54    24    54    1
   55    50    54    1
   56    54    55    1
   57    54    56    1
   58    56    57    1
   59    43    58    1
   60    56    58    1
   61    56    59    1
   62    59    60    1
   63    59    61    1
   64    59    62    1
   65    62    63    1
   66    64    65    1
   67    64    66    1
   68    64    67    1
   69    67    68    1
   70    67    69    1
   71    69    70    1
   72    67    71    1
   73    71    72    1
   74    71    73    1
   75    73    74    1
   76    45    75    1
   77    71    75    1
   78    75    76    1
   79    75    77    1
   80    77    78    1
   81    64    79    1
   82    77    79    1
   83    77    80    1
   84    80    81    1
   85    80    82    1
   86    80    83    1
   87    83    84    1
   88    85    86    1
   89    85    87    1
   90    85    88    1
   91    88    89    1
   92    88    90    1
   93    90    91    1
   94    88    92    1
   95    92    93    1
   96    92    94    1
   97    94    95    1
   98    66    96    1
   99    92    96    1
  100    96    97    1
  101    96    98    1
  102    98    99    1
  103    85   100    1
  104    98   100    1
  105    98   101    1
  106   101   102    1
  107   101   103    1
  108   101   104    1
  109   104   105    1
  110   106   107    1
  111    12   108    1
  112   106   108    1
  113   106   109    1
  114   109   110    1
  115   109   111    1
  116   111   112    1
  117   109   113    1
  118   113   114    1
  119   113   115    1
  120   115   116    1
  121    87   117    1
  122   113   117    1
  123   117   118    1
  124   117   119    1
  125   119   120    1
  126   106   121    1
  127   119   121    1
  128   119   122    1
  129   122   123    1
  130   122   124    1
  131   122   125    1
  132   125   126    1
  133   127   128    1
  134   127   129    1
  135   127   130    1
  136   127   131    1
  137   131   132    1
  138   131   133    1
  139   131   134    1
  140   134   135    1
  141   134   136    1
  142   134   137    1
  143   137   138    1
  144   137   139    1
  145   137   140    1
  146   140   141    1
  147   140   142    1
  148   140   143    1
  149   143   144    1
  150   143   145    1
  151   143   146    1
  152   146   147    1
  153   146   148    1
  154   146   149    1
  155   149   150    1
  156   149   151    1
  157   149   152    1
  158   152   153    1
  159   152   154    1
  160   152   155    1
@<TRIPOS>SUBSTRUCTURE
       1 MOL1            1 RESIDUE      1      MOL     
       2 MOL1          155 RESIDUE      1      MOL     
@<SCITEGIC>MOL_PROPERTY
feprocess Rank
SciTegic.value.IntegerValue
8

@<SCITEGIC>MOL_PROPERTY
Conf_Id
SciTegic.value.IntegerValue
721

@<SCITEGIC>MOL_PROPERTY
Probability
SciTegic.value.DoubleValue
0.69

@<SCITEGIC>MOL_PROPERTY
G
SciTegic.value.DoubleValue
586.279

@<SCITEGIC>MOL_PROPERTY
E
SciTegic.value.DoubleValue
380.476

@<SCITEGIC>MOL_PROPERTY
-TS
SciTegic.value.DoubleValue
205.803

@<SCITEGIC>MOL_PROPERTY
U+W
SciTegic.value.DoubleValue
243.657

@<SCITEGIC>MOL_PROPERTY
U
SciTegic.value.DoubleValue
335.648

@<SCITEGIC>MOL_PROPERTY
W
SciTegic.value.DoubleValue
-91.992

@<SCITEGIC>MOL_PROPERTY
W(PB)
SciTegic.value.DoubleValue
-98.201

@<SCITEGIC>MOL_PROPERTY
W(SA)
SciTegic.value.DoubleValue
6.209

@<SCITEGIC>MOL_PROPERTY
Valence
SciTegic.value.DoubleValue
149.445

@<SCITEGIC>MOL_PROPERTY
Coulomb
SciTegic.value.DoubleValue
214.851

@<SCITEGIC>MOL_PROPERTY
VdW
SciTegic.value.DoubleValue
-28.648

@<SCITEGIC>MOL_PROPERTY
VdW6
SciTegic.value.DoubleValue
-183.158

@<SCITEGIC>MOL_PROPERTY
VdW12
SciTegic.value.DoubleValue
154.510

@<SCITEGIC>MOL_PROPERTY
Bond
SciTegic.value.DoubleValue
4.531

@<SCITEGIC>MOL_PROPERTY
Angle
SciTegic.value.DoubleValue
11.757

@<SCITEGIC>MOL_PROPERTY
Pdih
SciTegic.value.DoubleValue
133.158

@<SCITEGIC>MOL_PROPERTY
Idih
SciTegic.value.DoubleValue
0.000

@<SCITEGIC>MOL_PROPERTY
Tether
SciTegic.value.DoubleValue
0.000

