@<TRIPOS>MOLECULE
CD_guest-s19_fast_vm2_rndm.mol2 : feprocess host+ligand conformer 1
         143         148           2
SMALL
USER_CHARGES
 
@<TRIPOS>ATOM
       1    C1      16.388389   15.625194   22.253671 C.3        1 MOL1         0.2972
       2    H1      15.350176   15.619418   22.604196 H          1 MOL1         0.0751
       3    O1      16.640630   16.692943   21.317690 O.3        1 MOL1        -0.3740
       4    C2      17.357815   15.791574   23.449667 C.3        1 MOL1         0.1003
       5    H2      17.219656   14.918736   24.100465 H          1 MOL1         0.0783
       6    O2      17.051784   16.979500   24.200128 O.3        1 MOL1        -0.5519
       7    H3      17.766347   17.646412   24.022405 H          1 MOL1         0.3769
       8    C3      18.826026   15.790178   22.956185 C.3        1 MOL1         0.1053
       9    H4      18.975530   16.673526   22.322612 H          1 MOL1         0.0783
      10    O3      19.706539   15.843302   24.083979 O.3        1 MOL1        -0.5519
      11    H5      19.670192   16.780024   24.407414 H          1 MOL1         0.3769
      12    C4      19.135270   14.543641   22.086967 C.3        1 MOL1         0.1018
      13    H6      19.241323   13.670336   22.744048 H          1 MOL1         0.0783
      14    C5      18.032339   14.280837   21.021377 C.3        1 MOL1         0.1043
      15    H7      18.127482   15.048628   20.242530 H          1 MOL1         0.0783
      16    O4      16.709332   14.372121   21.610304 O.3        1 MOL1        -0.3740
      17    C6      18.168659   12.905089   20.326190 C.3        1 MOL1         0.0138
      18    H8      19.055095   12.930073   19.677850 H          1 MOL1         0.0794
      19    H9      17.294843   12.751310   19.678980 H          1 MOL1         0.0794
      20    O5      18.287051   11.831442   21.268410 O.3        1 MOL1        -0.5486
      21    H10     18.296096   10.990148   20.761659 H          1 MOL1         0.3769
      22    C7      14.946597   20.195034   20.059391 C.3        1 MOL1         0.2972
      23    H11     14.393550   21.021841   19.595458 H          1 MOL1         0.0751
      24    O6      16.168040   20.648789   20.682176 O.3        1 MOL1        -0.3740
      25    C8      14.085340   19.482775   21.128075 C.3        1 MOL1         0.1003
      26    H12     13.217810   19.055039   20.608703 H          1 MOL1         0.0783
      27    O7      13.619496   20.404794   22.125713 O.3        1 MOL1        -0.5519
      28    H13     14.409322   20.900457   22.461668 H          1 MOL1         0.3769
      29    C9      14.866185   18.314591   21.781800 C.3        1 MOL1         0.1053
      30    H14     15.673051   18.741660   22.394220 H          1 MOL1         0.0783
      31    O8      13.952170   17.590369   22.611804 O.3        1 MOL1        -0.5519
      32    H15     13.513082   18.272804   23.165747 H          1 MOL1         0.3769
      33    C10     15.511023   17.366407   20.724437 C.3        1 MOL1         0.1018
      34    H16     14.758384   16.649061   20.375147 H          1 MOL1         0.0783
      35    C11     16.120352   18.122573   19.509619 C.3        1 MOL1         0.1043
      36    H17     17.071200   18.549112   19.840441 H          1 MOL1         0.0783
      37    O9      15.265062   19.201132   19.065710 O.3        1 MOL1        -0.3740
      38    C12     16.441940   17.210379   18.300717 C.3        1 MOL1         0.0138
      39    H18     17.281728   16.556058   18.568751 H          1 MOL1         0.0794
      40    H19     16.780196   17.843534   17.469855 H          1 MOL1         0.0794
      41    O10     15.319973   16.418812   17.889911 O.3        1 MOL1        -0.5486
      42    H20     15.182554   15.722414   18.566499 H          1 MOL1         0.3769
      43    C13     18.435080   24.053708   21.399072 C.3        1 MOL1         0.2972
      44    H21     18.838338   25.070094   21.494729 H          1 MOL1         0.0751
      45    O11     19.467144   23.056087   21.545292 O.3        1 MOL1        -0.3740
      46    C14     17.314351   23.789595   22.438387 C.3        1 MOL1         0.1003
      47    H22     16.490193   24.475012   22.201049 H          1 MOL1         0.0783
      48    O12     17.749906   24.051309   23.779919 O.3        1 MOL1        -0.5519
      49    H23     18.532430   23.469446   23.952955 H          1 MOL1         0.3769
      50    C15     16.777154   22.343159   22.294993 C.3        1 MOL1         0.1053
      51    H24     17.585269   21.640098   22.543256 H          1 MOL1         0.0783
      52    O13     15.678625   22.161804   23.194124 O.3        1 MOL1        -0.5519
      53    H25     15.984133   22.540872   24.048468 H          1 MOL1         0.3769
      54    C16     16.318707   22.075106   20.837749 C.3        1 MOL1         0.1018
      55    H26     15.371061   22.605601   20.675625 H          1 MOL1         0.0783
      56    C17     17.367824   22.544011   19.789250 C.3        1 MOL1         0.1043
      57    H27     18.220588   21.857000   19.831972 H          1 MOL1         0.0783
      58    O14     17.835065   23.882348   20.097074 O.3        1 MOL1        -0.3740
      59    C18     16.835553   22.527564   18.336474 C.3        1 MOL1         0.0138
      60    H28     16.715575   21.481646   18.022472 H          1 MOL1         0.0794
      61    H29     17.591641   22.980179   17.681156 H          1 MOL1         0.0794
      62    O15     15.586259   23.219268   18.210390 O.3        1 MOL1        -0.5486
      63    H30     15.340992   23.219016   17.259533 H          1 MOL1         0.3769
      64    C19     23.365545   22.274347   22.605951 C.3        1 MOL1         0.2972
      65    H31     24.399777   22.275046   22.972065 H          1 MOL1         0.0751
      66    O16     23.087052   21.105439   21.808976 O.3        1 MOL1        -0.3740
      67    C20     22.384481   22.329505   23.803004 C.3        1 MOL1         0.1003
      68    H32     22.563801   23.284989   24.312718 H          1 MOL1         0.0783
      69    O17     22.619671   21.264333   24.740131 O.3        1 MOL1        -0.5519
      70    H33     22.317205   20.406268   24.338597 H          1 MOL1         0.3769
      71    C21     20.919286   22.330338   23.312926 C.3        1 MOL1         0.1053
      72    H34     20.720386   21.369602   22.832494 H          1 MOL1         0.0783
      73    O18     20.049801   22.496498   24.436157 O.3        1 MOL1        -0.5519
      74    H35     20.321149   21.801161   25.077053 H          1 MOL1         0.3769
      75    C22     20.665203   23.434322   22.255129 C.3        1 MOL1         0.1018
      76    H36     20.558448   24.399754   22.767218 H          1 MOL1         0.0783
      77    C23     21.793207   23.510485   21.184989 C.3        1 MOL1         0.1043
      78    H37     21.666661   22.650274   20.517234 H          1 MOL1         0.0783
      79    O19     23.110806   23.440166   21.792200 O.3        1 MOL1        -0.3740
      80    C24     21.719962   24.782530   20.307518 C.3        1 MOL1         0.0138
      81    H38     20.835689   24.707671   19.659982 H          1 MOL1         0.0794
      82    H39     22.602102   24.809650   19.653924 H          1 MOL1         0.0794
      83    O20     21.645071   25.977512   21.095040 O.3        1 MOL1        -0.5486
      84    H40     21.671869   26.742275   20.479360 H          1 MOL1         0.3769
      85    C25     24.846030   17.785989   20.184714 C.3        1 MOL1         0.2972
      86    H41     25.418276   17.012387   19.656677 H          1 MOL1         0.0751
      87    O21     23.590227   17.272072   20.683124 O.3        1 MOL1        -0.3740
      88    C26     25.660702   18.385472   21.356861 C.3        1 MOL1         0.1003
      89    H42     26.527866   18.894164   20.915692 H          1 MOL1         0.0783
      90    O22     26.133825   17.371861   22.255772 O.3        1 MOL1        -0.5519
      91    H43     25.335900   16.913192   22.622243 H          1 MOL1         0.3769
      92    C27     24.824545   19.449311   22.110178 C.3        1 MOL1         0.1053
      93    H44     23.997184   18.937760   22.623468 H          1 MOL1         0.0783
      94    O23     25.670469   20.091628   23.069613 O.3        1 MOL1        -0.5519
      95    H45     26.108963   19.360926   23.558172 H          1 MOL1         0.3769
      96    C28     24.217064   20.506058   21.141321 C.3        1 MOL1         0.1018
      97    H46     24.987865   21.252428   20.912791 H          1 MOL1         0.0783
      98    C29     23.677414   19.902318   19.807340 C.3        1 MOL1         0.1043
      99    H47     22.711191   19.433662   20.008194 H          1 MOL1         0.0783
     100    O24     24.572439   18.886929   19.293575 O.3        1 MOL1        -0.3740
     101    C30     23.422050   20.945658   18.690659 C.3        1 MOL1         0.0138
     102    H48     22.475269   21.458025   18.898966 H          1 MOL1         0.0794
     103    H49     23.288626   20.409720   17.741473 H          1 MOL1         0.0794
     104    O25     24.476554   21.907863   18.565933 O.3        1 MOL1        -0.5486
     105    H50     24.430065   22.501349   19.346316 H          1 MOL1         0.3769
     106    C31     21.408389   13.842282   21.417687 C.3        1 MOL1         0.2972
     107    H51     21.009953   12.828199   21.550484 H          1 MOL1         0.0751
     108    O26     20.348367   14.823333   21.354374 O.3        1 MOL1        -0.3740
     109    C32     22.407227   14.208723   22.545855 C.3        1 MOL1         0.1003
     110    H52     23.270296   13.539177   22.435321 H          1 MOL1         0.0783
     111    O27     21.848947   14.008489   23.851894 O.3        1 MOL1        -0.5519
     112    H53     21.091565   14.639351   23.941790 H          1 MOL1         0.3769
     113    C33     22.916681   15.660235   22.358333 C.3        1 MOL1         0.1053
     114    H54     22.069100   16.350336   22.475625 H          1 MOL1         0.0783
     115    O28     23.908084   15.936000   23.352392 O.3        1 MOL1        -0.5519
     116    H55     23.486009   15.699928   24.208074 H          1 MOL1         0.3769
     117    C34     23.517159   15.853025   20.938378 C.3        1 MOL1         0.1018
     118    H56     24.510066   15.384508   20.918415 H          1 MOL1         0.0783
     119    C35     22.625570   15.240157   19.817496 C.3        1 MOL1         0.1043
     120    H57     21.751856   15.886755   19.686352 H          1 MOL1         0.0783
     121    O29     22.158818   13.917729   20.186866 O.3        1 MOL1        -0.3740
     122    C36     23.333681   15.153023   18.444731 C.3        1 MOL1         0.0138
     123    H58     23.451403   16.171612   18.050212 H          1 MOL1         0.0794
     124    H59     22.682302   14.607380   17.749000 H          1 MOL1         0.0794
     125    O30     24.613995   14.514935   18.535243 O.3        1 MOL1        -0.5486
     126    H60     24.969212   14.429805   17.623626 H          1 MOL1         0.3769
     127    C1      20.378380   18.816933   23.475675 C.2        1 MOL1         0.6173
     128    O1      21.404209   18.777215   24.125208 O.co2      1 MOL1        -0.6755
     129    O2      19.269834   18.698654   23.965135 O.co2      1 MOL1        -0.6755
     130    C2      20.521731   18.993168   22.009969 C.2        1 MOL1        -0.1504
     131    H1      21.541478   18.972806   21.649962 H          1 MOL1         0.0814
     132    C3      19.495724   19.207327   21.157370 C.2        1 MOL1        -0.1394
     133    H2      18.470211   19.248116   21.522706 H          1 MOL1         0.0817
     134    C4      19.685465   19.447930   19.674383 C.3        1 MOL1        -0.1849
     135    H3      20.397218   20.268976   19.521922 H          1 MOL1         0.0736
     136    H4      18.741791   19.774249   19.223193 H          1 MOL1         0.0736
     137    C5      20.184613   18.183336   18.951131 C.3        1 MOL1        -0.1866
     138    H5      21.178218   17.922988   19.331282 H          1 MOL1         0.0738
     139    H6      19.522341   17.337855   19.180980 H          1 MOL1         0.0738
     140    C6      20.262229   18.387214   17.425945 C.3        1 MOL1        -0.2879
     141    H7      19.274662   18.625346   17.010480 H          1 MOL1         0.0750
     142    H8      20.946940   19.207400   17.174919 H          1 MOL1         0.0750
     143    H9      20.627789   17.477211   16.933232 H          1 MOL1         0.0750
@<TRIPOS>BOND
    1     1     2    1
    2     1     3    1
    3     1     4    1
    4     4     5    1
    5     4     6    1
    6     6     7    1
    7     4     8    1
    8     8     9    1
    9     8    10    1
   10    10    11    1
   11     8    12    1
   12    12    13    1
   13    12    14    1
   14    14    15    1
   15     1    16    1
   16    14    16    1
   17    14    17    1
   18    17    18    1
   19    17    19    1
   20    17    20    1
   21    20    21    1
   22    22    23    1
   23    22    24    1
   24    22    25    1
   25    25    26    1
   26    25    27    1
   27    27    28    1
   28    25    29    1
   29    29    30    1
   30    29    31    1
   31    31    32    1
   32     3    33    1
   33    29    33    1
   34    33    34    1
   35    33    35    1
   36    35    36    1
   37    22    37    1
   38    35    37    1
   39    35    38    1
   40    38    39    1
   41    38    40    1
   42    38    41    1
   43    41    42    1
   44    43    44    1
   45    43    45    1
   46    43    46    1
   47    46    47    1
   48    46    48    1
   49    48    49    1
   50    46    50    1
   51    50    51    1
   52    50    52    1
   53    52    53    1
   54    24    54    1
   55    50    54    1
   56    54    55    1
   57    54    56    1
   58    56    57    1
   59    43    58    1
   60    56    58    1
   61    56    59    1
   62    59    60    1
   63    59    61    1
   64    59    62    1
   65    62    63    1
   66    64    65    1
   67    64    66    1
   68    64    67    1
   69    67    68    1
   70    67    69    1
   71    69    70    1
   72    67    71    1
   73    71    72    1
   74    71    73    1
   75    73    74    1
   76    45    75    1
   77    71    75    1
   78    75    76    1
   79    75    77    1
   80    77    78    1
   81    64    79    1
   82    77    79    1
   83    77    80    1
   84    80    81    1
   85    80    82    1
   86    80    83    1
   87    83    84    1
   88    85    86    1
   89    85    87    1
   90    85    88    1
   91    88    89    1
   92    88    90    1
   93    90    91    1
   94    88    92    1
   95    92    93    1
   96    92    94    1
   97    94    95    1
   98    66    96    1
   99    92    96    1
  100    96    97    1
  101    96    98    1
  102    98    99    1
  103    85   100    1
  104    98   100    1
  105    98   101    1
  106   101   102    1
  107   101   103    1
  108   101   104    1
  109   104   105    1
  110   106   107    1
  111    12   108    1
  112   106   108    1
  113   106   109    1
  114   109   110    1
  115   109   111    1
  116   111   112    1
  117   109   113    1
  118   113   114    1
  119   113   115    1
  120   115   116    1
  121    87   117    1
  122   113   117    1
  123   117   118    1
  124   117   119    1
  125   119   120    1
  126   106   121    1
  127   119   121    1
  128   119   122    1
  129   122   123    1
  130   122   124    1
  131   122   125    1
  132   125   126    1
  133   127   128    1
  134   127   129    2
  135   127   130    1
  136   130   131    1
  137   130   132    2
  138   132   133    1
  139   132   134    1
  140   134   135    1
  141   134   136    1
  142   134   137    1
  143   137   138    1
  144   137   139    1
  145   137   140    1
  146   140   141    1
  147   140   142    1
  148   140   143    1
@<TRIPOS>SUBSTRUCTURE
       1 MOL1            1 RESIDUE      1      MOL     
       2 MOL1          143 RESIDUE      1      MOL     
@<SCITEGIC>MOL_PROPERTY
feprocess Rank
SciTegic.value.IntegerValue
1

@<SCITEGIC>MOL_PROPERTY
Conf_Id
SciTegic.value.IntegerValue
61

@<SCITEGIC>MOL_PROPERTY
Probability
SciTegic.value.DoubleValue
74.75

@<SCITEGIC>MOL_PROPERTY
G
SciTegic.value.DoubleValue
494.785

@<SCITEGIC>MOL_PROPERTY
E
SciTegic.value.DoubleValue
312.454

@<SCITEGIC>MOL_PROPERTY
-TS
SciTegic.value.DoubleValue
182.331

@<SCITEGIC>MOL_PROPERTY
U+W
SciTegic.value.DoubleValue
186.366

@<SCITEGIC>MOL_PROPERTY
U
SciTegic.value.DoubleValue
258.617

@<SCITEGIC>MOL_PROPERTY
W
SciTegic.value.DoubleValue
-72.248

@<SCITEGIC>MOL_PROPERTY
W(PB)
SciTegic.value.DoubleValue
-78.262

@<SCITEGIC>MOL_PROPERTY
W(SA)
SciTegic.value.DoubleValue
6.014

@<SCITEGIC>MOL_PROPERTY
Valence
SciTegic.value.DoubleValue
146.099

@<SCITEGIC>MOL_PROPERTY
Coulomb
SciTegic.value.DoubleValue
135.525

@<SCITEGIC>MOL_PROPERTY
VdW
SciTegic.value.DoubleValue
-23.008

@<SCITEGIC>MOL_PROPERTY
VdW6
SciTegic.value.DoubleValue
-181.970

@<SCITEGIC>MOL_PROPERTY
VdW12
SciTegic.value.DoubleValue
158.962

@<SCITEGIC>MOL_PROPERTY
Bond
SciTegic.value.DoubleValue
5.232

@<SCITEGIC>MOL_PROPERTY
Angle
SciTegic.value.DoubleValue
15.967

@<SCITEGIC>MOL_PROPERTY
Pdih
SciTegic.value.DoubleValue
124.893

@<SCITEGIC>MOL_PROPERTY
Idih
SciTegic.value.DoubleValue
0.007

@<SCITEGIC>MOL_PROPERTY
Tether
SciTegic.value.DoubleValue
0.000

@<TRIPOS>MOLECULE
CD_guest-s19_fast_vm2_rndm.mol2 : feprocess host+ligand conformer 2
         143         148           2
SMALL
USER_CHARGES
 
@<TRIPOS>ATOM
       1    C1      16.259995   15.035406   21.635613 C.3        1 MOL1         0.2972
       2    H1      15.190413   14.855573   21.802616 H          1 MOL1         0.0751
       3    O1      16.583771   16.438132   21.682546 O.3        1 MOL1        -0.3740
       4    C2      17.090459   14.315468   22.723729 C.3        1 MOL1         0.1003
       5    H2      16.900660   13.238541   22.627028 H          1 MOL1         0.0783
       6    O2      16.695438   14.749816   24.034857 O.3        1 MOL1        -0.5519
       7    H3      16.390701   15.688265   23.951143 H          1 MOL1         0.3769
       8    C3      18.601408   14.555511   22.504307 C.3        1 MOL1         0.1053
       9    H4      18.806217   15.619034   22.686197 H          1 MOL1         0.0783
      10    O3      19.340146   13.759242   23.435823 O.3        1 MOL1        -0.5519
      11    H5      18.897844   13.911439   24.301019 H          1 MOL1         0.3769
      12    C4      19.027082   14.214475   21.052127 C.3        1 MOL1         0.1018
      13    H6      19.104867   13.123622   20.953491 H          1 MOL1         0.0783
      14    C5      18.048555   14.785573   19.983835 C.3        1 MOL1         0.1043
      15    H7      18.203982   15.871510   19.934211 H          1 MOL1         0.0783
      16    O4      16.668272   14.524256   20.350293 O.3        1 MOL1        -0.3740
      17    C6      18.294472   14.227243   18.562118 C.3        1 MOL1         0.0138
      18    H8      19.240568   14.639522   18.185642 H          1 MOL1         0.0794
      19    H9      17.495191   14.587636   17.900755 H          1 MOL1         0.0794
      20    O5      18.347775   12.795227   18.545803 O.3        1 MOL1        -0.5486
      21    H10     18.431593   12.510757   17.609622 H          1 MOL1         0.3769
      22    C7      14.797174   20.203954   21.594034 C.3        1 MOL1         0.2972
      23    H11     14.072160   21.026062   21.539160 H          1 MOL1         0.0751
      24    O6      16.149797   20.694683   21.666628 O.3        1 MOL1        -0.3740
      25    C8      14.541486   19.370101   22.873538 C.3        1 MOL1         0.1003
      26    H12     13.516689   18.980610   22.817301 H          1 MOL1         0.0783
      27    O7      14.672601   20.196596   24.041211 O.3        1 MOL1        -0.5519
      28    H13     15.326074   20.903630   23.817057 H          1 MOL1         0.3769
      29    C9      15.508949   18.165390   22.949953 C.3        1 MOL1         0.1053
      30    H14     16.528663   18.548447   23.094236 H          1 MOL1         0.0783
      31    O8      15.144195   17.331082   24.054077 O.3        1 MOL1        -0.5519
      32    H15     15.004023   17.950887   24.804452 H          1 MOL1         0.3769
      33    C10     15.473311   17.350656   21.634654 C.3        1 MOL1         0.1018
      34    H16     14.509020   16.829377   21.573687 H          1 MOL1         0.0783
      35    C11     15.646064   18.256463   20.383909 C.3        1 MOL1         0.1043
      36    H17     16.655310   18.680439   20.404166 H          1 MOL1         0.0783
      37    O9      14.682260   19.339220   20.440053 O.3        1 MOL1        -0.3740
      38    C12     15.508289   17.520059   19.026415 C.3        1 MOL1         0.0138
      39    H18     16.492070   17.118304   18.750424 H          1 MOL1         0.0794
      40    H19     15.234703   18.252945   18.255752 H          1 MOL1         0.0794
      41    O10     14.552106   16.454637   19.054397 O.3        1 MOL1        -0.5486
      42    H20     15.011118   15.672193   19.437039 H          1 MOL1         0.3769
      43    C13     18.491922   23.995681   20.673910 C.3        1 MOL1         0.2972
      44    H21     18.854213   24.963289   20.303878 H          1 MOL1         0.0751
      45    O11     19.572680   23.151182   21.119713 O.3        1 MOL1        -0.3740
      46    C14     17.526335   24.195681   21.870200 C.3        1 MOL1         0.1003
      47    H22     16.677147   24.791722   21.511536 H          1 MOL1         0.0783
      48    O12     18.170942   24.897443   22.945095 O.3        1 MOL1        -0.5519
      49    H23     19.084953   24.525589   23.037633 H          1 MOL1         0.3769
      50    C15     16.978488   22.832298   22.358497 C.3        1 MOL1         0.1053
      51    H24     17.815622   22.253874   22.771801 H          1 MOL1         0.0783
      52    O13     15.988621   23.043769   23.370929 O.3        1 MOL1        -0.5519
      53    H25     16.387989   23.699807   23.984605 H          1 MOL1         0.3769
      54    C16     16.363771   22.033282   21.183266 C.3        1 MOL1         0.1018
      55    H26     15.425486   22.522873   20.891687 H          1 MOL1         0.0783
      56    C17     17.314578   21.968395   19.955463 C.3        1 MOL1         0.1043
      57    H27     18.179225   21.349958   20.222834 H          1 MOL1         0.0783
      58    O14     17.767464   23.305313   19.632411 O.3        1 MOL1        -0.3740
      59    C18     16.685643   21.351226   18.679313 C.3        1 MOL1         0.0138
      60    H28     16.799612   20.262675   18.723200 H          1 MOL1         0.0794
      61    H29     17.257740   21.695201   17.807378 H          1 MOL1         0.0794
      62    O15     15.299611   21.672355   18.517251 O.3        1 MOL1        -0.5486
      63    H30     14.795246   21.030237   19.067063 H          1 MOL1         0.3769
      64    C19     23.691022   22.763499   21.139299 C.3        1 MOL1         0.2972
      65    H31     24.779880   22.870357   21.051775 H          1 MOL1         0.0751
      66    O16     23.311676   21.392146   21.380967 O.3        1 MOL1        -0.3740
      67    C20     23.121624   23.673999   22.259493 C.3        1 MOL1         0.1003
      68    H32     23.295941   24.711925   21.946981 H          1 MOL1         0.0783
      69    O17     23.777381   23.463922   23.518047 O.3        1 MOL1        -0.5519
      70    H33     23.595991   22.528425   23.786707 H          1 MOL1         0.3769
      71    C21     21.591420   23.470856   22.381740 C.3        1 MOL1         0.1053
      72    H34     21.397793   22.437332   22.702530 H          1 MOL1         0.0783
      73    O18     21.064347   24.386693   23.347181 O.3        1 MOL1        -0.5519
      74    H35     21.669061   24.322146   24.119557 H          1 MOL1         0.3769
      75    C22     20.900982   23.700026   21.013298 C.3        1 MOL1         0.1018
      76    H36     20.884515   24.780779   20.820937 H          1 MOL1         0.0783
      77    C23     21.619891   22.972074   19.840170 C.3        1 MOL1         0.1043
      78    H37     21.414152   21.898173   19.923412 H          1 MOL1         0.0783
      79    O19     23.054348   23.181641   19.912766 O.3        1 MOL1        -0.3740
      80    C24     21.127661   23.423581   18.444493 C.3        1 MOL1         0.0138
      81    H38     20.106569   23.046876   18.297478 H          1 MOL1         0.0794
      82    H39     21.761228   22.953276   17.680715 H          1 MOL1         0.0794
      83    O20     21.145679   24.849684   18.299004 O.3        1 MOL1        -0.5486
      84    H40     20.861335   25.058430   17.382606 H          1 MOL1         0.3769
      85    C25     24.531624   17.661661   22.581764 C.3        1 MOL1         0.2972
      86    H41     25.035316   16.769253   22.972392 H          1 MOL1         0.0751
      87    O21     23.347558   17.314072   21.833947 O.3        1 MOL1        -0.3740
      88    C26     24.131207   18.590865   23.754754 C.3        1 MOL1         0.1003
      89    H42     25.057686   18.907143   24.250988 H          1 MOL1         0.0783
      90    O22     23.320656   17.870648   24.699690 O.3        1 MOL1        -0.5519
      91    H43     22.603322   18.471014   25.027899 H          1 MOL1         0.3769
      92    C27     23.422919   19.864228   23.228262 C.3        1 MOL1         0.1053
      93    H44     22.459287   19.569773   22.798427 H          1 MOL1         0.0783
      94    O23     23.217152   20.785900   24.306179 O.3        1 MOL1        -0.5519
      95    H45     22.500814   20.404394   24.877317 H          1 MOL1         0.3769
      96    C28     24.240287   20.559281   22.106894 C.3        1 MOL1         0.1018
      97    H46     25.048716   21.142799   22.566950 H          1 MOL1         0.0783
      98    C29     24.826312   19.563213   21.066273 C.3        1 MOL1         0.1043
      99    H47     23.996354   19.232459   20.433600 H          1 MOL1         0.0783
     100    O24     25.412658   18.404015   21.711171 O.3        1 MOL1        -0.3740
     101    C30     25.883570   20.197590   20.131382 C.3        1 MOL1         0.0138
     102    H48     25.375315   20.902158   19.459133 H          1 MOL1         0.0794
     103    H49     26.319200   19.407163   19.505639 H          1 MOL1         0.0794
     104    O25     26.911345   20.878555   20.861583 O.3        1 MOL1        -0.5486
     105    H50     27.581944   21.188340   20.214313 H          1 MOL1         0.3769
     106    C31     21.351630   14.106709   20.230351 C.3        1 MOL1         0.2972
     107    H51     20.968454   13.231288   19.690331 H          1 MOL1         0.0751
     108    O26     20.290569   14.868944   20.839486 O.3        1 MOL1        -0.3740
     109    C32     22.361598   13.697842   21.329874 C.3        1 MOL1         0.1003
     110    H52     23.215423   13.229273   20.823256 H          1 MOL1         0.0783
     111    O27     21.789686   12.751322   22.245685 O.3        1 MOL1        -0.5519
     112    H53     20.976037   13.168644   22.627362 H          1 MOL1         0.3769
     113    C33     22.886902   14.944229   22.088111 C.3        1 MOL1         0.1053
     114    H54     22.061798   15.354489   22.687642 H          1 MOL1         0.0783
     115    O28     23.952745   14.526426   22.947330 O.3        1 MOL1        -0.5519
     116    H55     23.601419   13.749671   23.435483 H          1 MOL1         0.3769
     117    C34     23.378856   16.061314   21.120450 C.3        1 MOL1         0.1018
     118    H56     24.393561   15.813474   20.785128 H          1 MOL1         0.0783
     119    C35     22.454050   16.256281   19.882704 C.3        1 MOL1         0.1043
     120    H57     21.553228   16.779050   20.221925 H          1 MOL1         0.0783
     121    O29     22.066550   14.976124   19.328210 O.3        1 MOL1        -0.3740
     122    C36     23.060112   17.122988   18.748972 C.3        1 MOL1         0.0138
     123    H58     22.866263   18.178242   18.976236 H          1 MOL1         0.0794
     124    H59     22.522691   16.902232   17.817134 H          1 MOL1         0.0794
     125    O30     24.466324   16.913857   18.565503 O.3        1 MOL1        -0.5486
     126    H60     24.918794   17.215201   19.383082 H          1 MOL1         0.3769
     127    C1      20.087668   19.971540   25.174231 C.2        1 MOL1         0.6173
     128    O1      19.539222   20.847914   25.812013 O.co2      1 MOL1        -0.6755
     129    O2      21.113429   19.424046   25.540444 O.co2      1 MOL1        -0.6755
     130    C2      19.526850   19.641899   23.837121 C.2        1 MOL1        -0.1504
     131    H1      18.684417   20.247111   23.513461 H          1 MOL1         0.0814
     132    C3      20.020383   18.674698   23.032052 C.2        1 MOL1        -0.1394
     133    H2      20.855963   18.050826   23.346951 H          1 MOL1         0.0817
     134    C4      19.500479   18.406772   21.641569 C.3        1 MOL1        -0.1849
     135    H3      18.428556   18.620782   21.603397 H          1 MOL1         0.0736
     136    H4      19.622011   17.346259   21.399417 H          1 MOL1         0.0736
     137    C5      20.243798   19.268626   20.603541 C.3        1 MOL1        -0.1866
     138    H5      20.077687   20.327720   20.834973 H          1 MOL1         0.0738
     139    H6      21.325049   19.099320   20.688723 H          1 MOL1         0.0738
     140    C6      19.782415   18.961626   19.164585 C.3        1 MOL1        -0.2879
     141    H7      19.987275   17.917134   18.898589 H          1 MOL1         0.0750
     142    H8      18.706225   19.128757   19.055200 H          1 MOL1         0.0750
     143    H9      20.303993   19.605746   18.445281 H          1 MOL1         0.0750
@<TRIPOS>BOND
    1     1     2    1
    2     1     3    1
    3     1     4    1
    4     4     5    1
    5     4     6    1
    6     6     7    1
    7     4     8    1
    8     8     9    1
    9     8    10    1
   10    10    11    1
   11     8    12    1
   12    12    13    1
   13    12    14    1
   14    14    15    1
   15     1    16    1
   16    14    16    1
   17    14    17    1
   18    17    18    1
   19    17    19    1
   20    17    20    1
   21    20    21    1
   22    22    23    1
   23    22    24    1
   24    22    25    1
   25    25    26    1
   26    25    27    1
   27    27    28    1
   28    25    29    1
   29    29    30    1
   30    29    31    1
   31    31    32    1
   32     3    33    1
   33    29    33    1
   34    33    34    1
   35    33    35    1
   36    35    36    1
   37    22    37    1
   38    35    37    1
   39    35    38    1
   40    38    39    1
   41    38    40    1
   42    38    41    1
   43    41    42    1
   44    43    44    1
   45    43    45    1
   46    43    46    1
   47    46    47    1
   48    46    48    1
   49    48    49    1
   50    46    50    1
   51    50    51    1
   52    50    52    1
   53    52    53    1
   54    24    54    1
   55    50    54    1
   56    54    55    1
   57    54    56    1
   58    56    57    1
   59    43    58    1
   60    56    58    1
   61    56    59    1
   62    59    60    1
   63    59    61    1
   64    59    62    1
   65    62    63    1
   66    64    65    1
   67    64    66    1
   68    64    67    1
   69    67    68    1
   70    67    69    1
   71    69    70    1
   72    67    71    1
   73    71    72    1
   74    71    73    1
   75    73    74    1
   76    45    75    1
   77    71    75    1
   78    75    76    1
   79    75    77    1
   80    77    78    1
   81    64    79    1
   82    77    79    1
   83    77    80    1
   84    80    81    1
   85    80    82    1
   86    80    83    1
   87    83    84    1
   88    85    86    1
   89    85    87    1
   90    85    88    1
   91    88    89    1
   92    88    90    1
   93    90    91    1
   94    88    92    1
   95    92    93    1
   96    92    94    1
   97    94    95    1
   98    66    96    1
   99    92    96    1
  100    96    97    1
  101    96    98    1
  102    98    99    1
  103    85   100    1
  104    98   100    1
  105    98   101    1
  106   101   102    1
  107   101   103    1
  108   101   104    1
  109   104   105    1
  110   106   107    1
  111    12   108    1
  112   106   108    1
  113   106   109    1
  114   109   110    1
  115   109   111    1
  116   111   112    1
  117   109   113    1
  118   113   114    1
  119   113   115    1
  120   115   116    1
  121    87   117    1
  122   113   117    1
  123   117   118    1
  124   117   119    1
  125   119   120    1
  126   106   121    1
  127   119   121    1
  128   119   122    1
  129   122   123    1
  130   122   124    1
  131   122   125    1
  132   125   126    1
  133   127   128    1
  134   127   129    2
  135   127   130    1
  136   130   131    1
  137   130   132    2
  138   132   133    1
  139   132   134    1
  140   134   135    1
  141   134   136    1
  142   134   137    1
  143   137   138    1
  144   137   139    1
  145   137   140    1
  146   140   141    1
  147   140   142    1
  148   140   143    1
@<TRIPOS>SUBSTRUCTURE
       1 MOL1            1 RESIDUE      1      MOL     
       2 MOL1          143 RESIDUE      1      MOL     
@<SCITEGIC>MOL_PROPERTY
feprocess Rank
SciTegic.value.IntegerValue
2

@<SCITEGIC>MOL_PROPERTY
Conf_Id
SciTegic.value.IntegerValue
49

@<SCITEGIC>MOL_PROPERTY
Probability
SciTegic.value.DoubleValue
7.06

@<SCITEGIC>MOL_PROPERTY
G
SciTegic.value.DoubleValue
496.193

@<SCITEGIC>MOL_PROPERTY
E
SciTegic.value.DoubleValue
314.688

@<SCITEGIC>MOL_PROPERTY
-TS
SciTegic.value.DoubleValue
181.505

@<SCITEGIC>MOL_PROPERTY
U+W
SciTegic.value.DoubleValue
188.600

@<SCITEGIC>MOL_PROPERTY
U
SciTegic.value.DoubleValue
266.956

@<SCITEGIC>MOL_PROPERTY
W
SciTegic.value.DoubleValue
-78.356

@<SCITEGIC>MOL_PROPERTY
W(PB)
SciTegic.value.DoubleValue
-84.371

@<SCITEGIC>MOL_PROPERTY
W(SA)
SciTegic.value.DoubleValue
6.015

@<SCITEGIC>MOL_PROPERTY
Valence
SciTegic.value.DoubleValue
148.748

@<SCITEGIC>MOL_PROPERTY
Coulomb
SciTegic.value.DoubleValue
142.556

@<SCITEGIC>MOL_PROPERTY
VdW
SciTegic.value.DoubleValue
-24.348

@<SCITEGIC>MOL_PROPERTY
VdW6
SciTegic.value.DoubleValue
-179.286

@<SCITEGIC>MOL_PROPERTY
VdW12
SciTegic.value.DoubleValue
154.938

@<SCITEGIC>MOL_PROPERTY
Bond
SciTegic.value.DoubleValue
4.847

@<SCITEGIC>MOL_PROPERTY
Angle
SciTegic.value.DoubleValue
14.093

@<SCITEGIC>MOL_PROPERTY
Pdih
SciTegic.value.DoubleValue
129.788

@<SCITEGIC>MOL_PROPERTY
Idih
SciTegic.value.DoubleValue
0.020

@<SCITEGIC>MOL_PROPERTY
Tether
SciTegic.value.DoubleValue
0.000

@<TRIPOS>MOLECULE
CD_guest-s19_fast_vm2_rndm.mol2 : feprocess host+ligand conformer 3
         143         148           2
SMALL
USER_CHARGES
 
@<TRIPOS>ATOM
       1    C1      16.270304   15.296678   21.613197 C.3        1 MOL1         0.2972
       2    H1      15.204983   15.140397   21.826025 H          1 MOL1         0.0751
       3    O1      16.525090   16.631241   21.132753 O.3        1 MOL1        -0.3740
       4    C2      17.120222   15.038995   22.885211 C.3        1 MOL1         0.1003
       5    H2      16.958063   13.992041   23.172952 H          1 MOL1         0.0783
       6    O2      16.728155   15.887885   23.975684 O.3        1 MOL1        -0.5519
       7    H3      15.898225   16.348977   23.703147 H          1 MOL1         0.3769
       8    C3      18.625580   15.224260   22.588624 C.3        1 MOL1         0.1053
       9    H4      18.794412   16.283807   22.359297 H          1 MOL1         0.0783
      10    O3      19.370333   14.856329   23.753490 O.3        1 MOL1        -0.5519
      11    H5      18.911095   15.318946   24.490631 H          1 MOL1         0.3769
      12    C4      19.071963   14.382066   21.365252 C.3        1 MOL1         0.1018
      13    H6      19.131196   13.327455   21.664714 H          1 MOL1         0.0783
      14    C5      18.096610   14.534591   20.163104 C.3        1 MOL1         0.1043
      15    H7      18.225471   15.543162   19.748816 H          1 MOL1         0.0783
      16    O4      16.721144   14.372985   20.599340 O.3        1 MOL1        -0.3740
      17    C6      18.369273   13.530913   19.017394 C.3        1 MOL1         0.0138
      18    H8      19.308074   13.815145   18.522954 H          1 MOL1         0.0794
      19    H9      17.567390   13.623521   18.272743 H          1 MOL1         0.0794
      20    O5      18.458568   12.180428   19.489409 O.3        1 MOL1        -0.5486
      21    H10     18.552412   11.596504   18.705355 H          1 MOL1         0.3769
      22    C7      14.705782   20.345276   20.870967 C.3        1 MOL1         0.2972
      23    H11     14.053308   21.205872   20.675082 H          1 MOL1         0.0751
      24    O6      16.013179   20.750781   21.324817 O.3        1 MOL1        -0.3740
      25    C8      14.099020   19.427218   21.959903 C.3        1 MOL1         0.1003
      26    H12     13.138945   19.057023   21.577234 H          1 MOL1         0.0783
      27    O7      13.870801   20.150756   23.179774 O.3        1 MOL1        -0.5519
      28    H13     14.689088   20.677044   23.369660 H          1 MOL1         0.3769
      29    C9      15.013405   18.203190   22.219257 C.3        1 MOL1         0.1053
      30    H14     15.943955   18.561782   22.681931 H          1 MOL1         0.0783
      31    O8      14.336740   17.311786   23.111931 O.3        1 MOL1        -0.5519
      32    H15     13.917880   17.898060   23.782958 H          1 MOL1         0.3769
      33    C10     15.380358   17.474766   20.896036 C.3        1 MOL1         0.1018
      34    H16     14.515568   16.891171   20.555956 H          1 MOL1         0.0783
      35    C11     15.802211   18.460287   19.769839 C.3        1 MOL1         0.1043
      36    H17     16.784064   18.874094   20.021812 H          1 MOL1         0.0783
      37    O9      14.855739   19.550507   19.675229 O.3        1 MOL1        -0.3740
      38    C12     15.946796   17.793507   18.379642 C.3        1 MOL1         0.0138
      39    H18     16.859313   17.182176   18.380638 H          1 MOL1         0.0794
      40    H19     16.087029   18.582165   17.628691 H          1 MOL1         0.0794
      41    O10     14.820300   16.978560   18.033365 O.3        1 MOL1        -0.5486
      42    H20     14.878973   16.155625   18.564718 H          1 MOL1         0.3769
      43    C13     18.465854   24.045727   21.847962 C.3        1 MOL1         0.2972
      44    H21     18.896162   25.047653   21.974805 H          1 MOL1         0.0751
      45    O11     19.497936   23.045661   21.748193 O.3        1 MOL1        -0.3740
      46    C14     17.528916   23.722930   23.040482 C.3        1 MOL1         0.1003
      47    H22     16.694636   24.434276   22.984645 H          1 MOL1         0.0783
      48    O12     18.181289   23.900622   24.307051 O.3        1 MOL1        -0.5519
      49    H23     18.911534   23.228814   24.388637 H          1 MOL1         0.3769
      50    C15     16.935754   22.303146   22.898713 C.3        1 MOL1         0.1053
      51    H24     17.756001   21.573250   22.944439 H          1 MOL1         0.0783
      52    O13     16.006662   22.062281   23.960979 O.3        1 MOL1        -0.5519
      53    H25     16.471807   22.354981   24.776690 H          1 MOL1         0.3769
      54    C16     16.218463   22.160401   21.534372 C.3        1 MOL1         0.1018
      55    H26     15.271380   22.714155   21.580543 H          1 MOL1         0.0783
      56    C17     17.081788   22.675982   20.349221 C.3        1 MOL1         0.1043
      57    H27     17.883241   21.944662   20.203038 H          1 MOL1         0.0783
      58    O14     17.670537   23.973401   20.643189 O.3        1 MOL1        -0.3740
      59    C18     16.299704   22.782260   19.017952 C.3        1 MOL1         0.0138
      60    H28     16.073402   21.767648   18.663687 H          1 MOL1         0.0794
      61    H29     16.945343   23.252436   18.264301 H          1 MOL1         0.0794
      62    O15     15.084792   23.527255   19.167547 O.3        1 MOL1        -0.5486
      63    H30     14.670179   23.601927   18.280538 H          1 MOL1         0.3769
      64    C19     23.505164   22.535786   20.781134 C.3        1 MOL1         0.2972
      65    H31     24.521962   22.610998   20.375223 H          1 MOL1         0.0751
      66    O16     23.291144   21.280627   21.450936 O.3        1 MOL1        -0.3740
      67    C20     23.233095   23.676113   21.793607 C.3        1 MOL1         0.1003
      68    H32     23.401885   24.623396   21.265274 H          1 MOL1         0.0783
      69    O17     24.135609   23.588060   22.909197 O.3        1 MOL1        -0.5519
      70    H33     24.078202   22.662775   23.257765 H          1 MOL1         0.3769
      71    C21     21.765472   23.666194   22.294672 C.3        1 MOL1         0.1053
      72    H34     21.655501   22.827751   22.994162 H          1 MOL1         0.0783
      73    O18     21.507898   24.897342   22.977551 O.3        1 MOL1        -0.5519
      74    H35     22.196928   24.959759   23.673945 H          1 MOL1         0.3769
      75    C22     20.735179   23.481805   21.144731 C.3        1 MOL1         0.1018
      76    H36     20.620078   24.444254   20.629429 H          1 MOL1         0.0783
      77    C23     21.163953   22.403014   20.107604 C.3        1 MOL1         0.1043
      78    H37     21.084036   21.415087   20.578469 H          1 MOL1         0.0783
      79    O19     22.536394   22.642670   19.719604 O.3        1 MOL1        -0.3740
      80    C24     20.309677   22.350676   18.813679 C.3        1 MOL1         0.0138
      81    H38     19.512685   21.610530   18.949057 H          1 MOL1         0.0794
      82    H39     20.939579   21.974657   17.996450 H          1 MOL1         0.0794
      83    O20     19.747085   23.617986   18.449874 O.3        1 MOL1        -0.5486
      84    H40     19.092741   23.862014   19.145514 H          1 MOL1         0.3769
      85    C25     25.080719   17.621022   22.089826 C.3        1 MOL1         0.2972
      86    H41     25.763958   16.780469   22.267037 H          1 MOL1         0.0751
      87    O21     23.725045   17.167522   21.914596 O.3        1 MOL1        -0.3740
      88    C26     25.115260   18.582733   23.302429 C.3        1 MOL1         0.1003
      89    H42     26.144080   18.951472   23.405407 H          1 MOL1         0.0783
      90    O22     24.737338   17.882473   24.497473 O.3        1 MOL1        -0.5519
      91    H43     24.080509   17.199733   24.222453 H          1 MOL1         0.3769
      92    C27     24.190307   19.800676   23.073949 C.3        1 MOL1         0.1053
      93    H44     23.151624   19.444850   23.089825 H          1 MOL1         0.0783
      94    O23     24.388268   20.759827   24.119370 O.3        1 MOL1        -0.5519
      95    H45     24.315387   20.246524   24.954000 H          1 MOL1         0.3769
      96    C28     24.454573   20.473225   21.705599 C.3        1 MOL1         0.1018
      97    H46     25.365828   21.080787   21.786507 H          1 MOL1         0.0783
      98    C29     24.588873   19.450594   20.539572 C.3        1 MOL1         0.1043
      99    H47     23.588043   19.051856   20.333539 H          1 MOL1         0.0783
     100    O24     25.468399   18.358404   20.913083 O.3        1 MOL1        -0.3740
     101    C30     25.118887   20.062000   19.220041 C.3        1 MOL1         0.0138
     102    H48     24.330347   20.687872   18.781240 H          1 MOL1         0.0794
     103    H49     25.316940   19.247021   18.510938 H          1 MOL1         0.0794
     104    O25     26.304063   20.840993   19.423929 O.3        1 MOL1        -0.5486
     105    H50     26.633161   21.120112   18.541802 H          1 MOL1         0.3769
     106    C31     21.411783   13.943374   20.701637 C.3        1 MOL1         0.2972
     107    H51     21.017341   12.997122   20.309807 H          1 MOL1         0.0751
     108    O26     20.351772   14.895685   20.939731 O.3        1 MOL1        -0.3740
     109    C32     22.231278   13.715565   22.001389 C.3        1 MOL1         0.1003
     110    H52     23.087799   13.083927   21.732020 H          1 MOL1         0.0783
     111    O27     21.469011   13.044265   23.014852 O.3        1 MOL1        -0.5519
     112    H53     20.733231   13.656261   23.269892 H          1 MOL1         0.3769
     113    C33     22.785153   15.059682   22.532614 C.3        1 MOL1         0.1053
     114    H54     21.935363   15.680776   22.846761 H          1 MOL1         0.0783
     115    O28     23.644199   14.816557   23.651866 O.3        1 MOL1        -0.5519
     116    H55     23.157844   14.176364   24.216858 H          1 MOL1         0.3769
     117    C34     23.565306   15.819833   21.429618 C.3        1 MOL1         0.1018
     118    H56     24.529934   15.315590   21.287167 H          1 MOL1         0.0783
     119    C35     22.801925   15.861708   20.071090 C.3        1 MOL1         0.1043
     120    H57     21.944512   16.533886   20.176803 H          1 MOL1         0.0783
     121    O29     22.320374   14.532936   19.744822 O.3        1 MOL1        -0.3740
     122    C36     23.622246   16.391010   18.865743 C.3        1 MOL1         0.0138
     123    H58     23.460526   17.472271   18.782230 H          1 MOL1         0.0794
     124    H59     23.218943   15.943770   17.947399 H          1 MOL1         0.0794
     125    O30     25.025286   16.120973   18.965307 O.3        1 MOL1        -0.5486
     126    H60     25.397982   16.777423   19.599383 H          1 MOL1         0.3769
     127    C1      19.974988   20.716898   24.929092 C.2        1 MOL1         0.6173
     128    O1      19.690033   19.930541   25.812300 O.co2      1 MOL1        -0.6755
     129    O2      19.984146   21.922994   25.081343 O.co2      1 MOL1        -0.6755
     130    C2      20.299172   20.214732   23.570497 C.2        1 MOL1        -0.1504
     131    H1      20.550341   20.970592   22.837651 H          1 MOL1         0.0814
     132    C3      20.283770   18.916698   23.204221 C.2        1 MOL1        -0.1394
     133    H2      20.028003   18.130098   23.913605 H          1 MOL1         0.0817
     134    C4      20.600930   18.473694   21.796342 C.3        1 MOL1        -0.1849
     135    H3      20.766414   17.392670   21.791030 H          1 MOL1         0.0736
     136    H4      21.531990   18.942702   21.457357 H          1 MOL1         0.0736
     137    C5      19.458082   18.829348   20.827837 C.3        1 MOL1        -0.1866
     138    H5      18.548234   18.318706   21.161751 H          1 MOL1         0.0738
     139    H6      19.249952   19.906112   20.876046 H          1 MOL1         0.0738
     140    C6      19.784033   18.428897   19.375288 C.3        1 MOL1        -0.2879
     141    H7      19.912156   17.342450   19.289730 H          1 MOL1         0.0750
     142    H8      18.973727   18.728866   18.699587 H          1 MOL1         0.0750
     143    H9      20.707738   18.913157   19.033423 H          1 MOL1         0.0750
@<TRIPOS>BOND
    1     1     2    1
    2     1     3    1
    3     1     4    1
    4     4     5    1
    5     4     6    1
    6     6     7    1
    7     4     8    1
    8     8     9    1
    9     8    10    1
   10    10    11    1
   11     8    12    1
   12    12    13    1
   13    12    14    1
   14    14    15    1
   15     1    16    1
   16    14    16    1
   17    14    17    1
   18    17    18    1
   19    17    19    1
   20    17    20    1
   21    20    21    1
   22    22    23    1
   23    22    24    1
   24    22    25    1
   25    25    26    1
   26    25    27    1
   27    27    28    1
   28    25    29    1
   29    29    30    1
   30    29    31    1
   31    31    32    1
   32     3    33    1
   33    29    33    1
   34    33    34    1
   35    33    35    1
   36    35    36    1
   37    22    37    1
   38    35    37    1
   39    35    38    1
   40    38    39    1
   41    38    40    1
   42    38    41    1
   43    41    42    1
   44    43    44    1
   45    43    45    1
   46    43    46    1
   47    46    47    1
   48    46    48    1
   49    48    49    1
   50    46    50    1
   51    50    51    1
   52    50    52    1
   53    52    53    1
   54    24    54    1
   55    50    54    1
   56    54    55    1
   57    54    56    1
   58    56    57    1
   59    43    58    1
   60    56    58    1
   61    56    59    1
   62    59    60    1
   63    59    61    1
   64    59    62    1
   65    62    63    1
   66    64    65    1
   67    64    66    1
   68    64    67    1
   69    67    68    1
   70    67    69    1
   71    69    70    1
   72    67    71    1
   73    71    72    1
   74    71    73    1
   75    73    74    1
   76    45    75    1
   77    71    75    1
   78    75    76    1
   79    75    77    1
   80    77    78    1
   81    64    79    1
   82    77    79    1
   83    77    80    1
   84    80    81    1
   85    80    82    1
   86    80    83    1
   87    83    84    1
   88    85    86    1
   89    85    87    1
   90    85    88    1
   91    88    89    1
   92    88    90    1
   93    90    91    1
   94    88    92    1
   95    92    93    1
   96    92    94    1
   97    94    95    1
   98    66    96    1
   99    92    96    1
  100    96    97    1
  101    96    98    1
  102    98    99    1
  103    85   100    1
  104    98   100    1
  105    98   101    1
  106   101   102    1
  107   101   103    1
  108   101   104    1
  109   104   105    1
  110   106   107    1
  111    12   108    1
  112   106   108    1
  113   106   109    1
  114   109   110    1
  115   109   111    1
  116   111   112    1
  117   109   113    1
  118   113   114    1
  119   113   115    1
  120   115   116    1
  121    87   117    1
  122   113   117    1
  123   117   118    1
  124   117   119    1
  125   119   120    1
  126   106   121    1
  127   119   121    1
  128   119   122    1
  129   122   123    1
  130   122   124    1
  131   122   125    1
  132   125   126    1
  133   127   128    1
  134   127   129    2
  135   127   130    1
  136   130   131    1
  137   130   132    2
  138   132   133    1
  139   132   134    1
  140   134   135    1
  141   134   136    1
  142   134   137    1
  143   137   138    1
  144   137   139    1
  145   137   140    1
  146   140   141    1
  147   140   142    1
  148   140   143    1
@<TRIPOS>SUBSTRUCTURE
       1 MOL1            1 RESIDUE      1      MOL     
       2 MOL1          143 RESIDUE      1      MOL     
@<SCITEGIC>MOL_PROPERTY
feprocess Rank
SciTegic.value.IntegerValue
3

@<SCITEGIC>MOL_PROPERTY
Conf_Id
SciTegic.value.IntegerValue
166

@<SCITEGIC>MOL_PROPERTY
Probability
SciTegic.value.DoubleValue
3.38

@<SCITEGIC>MOL_PROPERTY
G
SciTegic.value.DoubleValue
496.631

@<SCITEGIC>MOL_PROPERTY
E
SciTegic.value.DoubleValue
315.138

@<SCITEGIC>MOL_PROPERTY
-TS
SciTegic.value.DoubleValue
181.493

@<SCITEGIC>MOL_PROPERTY
U+W
SciTegic.value.DoubleValue
189.050

@<SCITEGIC>MOL_PROPERTY
U
SciTegic.value.DoubleValue
272.882

@<SCITEGIC>MOL_PROPERTY
W
SciTegic.value.DoubleValue
-83.832

@<SCITEGIC>MOL_PROPERTY
W(PB)
SciTegic.value.DoubleValue
-89.849

@<SCITEGIC>MOL_PROPERTY
W(SA)
SciTegic.value.DoubleValue
6.017

@<SCITEGIC>MOL_PROPERTY
Valence
SciTegic.value.DoubleValue
147.705

@<SCITEGIC>MOL_PROPERTY
Coulomb
SciTegic.value.DoubleValue
150.858

@<SCITEGIC>MOL_PROPERTY
VdW
SciTegic.value.DoubleValue
-25.681

@<SCITEGIC>MOL_PROPERTY
VdW6
SciTegic.value.DoubleValue
-179.166

@<SCITEGIC>MOL_PROPERTY
VdW12
SciTegic.value.DoubleValue
153.485

@<SCITEGIC>MOL_PROPERTY
Bond
SciTegic.value.DoubleValue
4.834

@<SCITEGIC>MOL_PROPERTY
Angle
SciTegic.value.DoubleValue
14.397

@<SCITEGIC>MOL_PROPERTY
Pdih
SciTegic.value.DoubleValue
128.472

@<SCITEGIC>MOL_PROPERTY
Idih
SciTegic.value.DoubleValue
0.003

@<SCITEGIC>MOL_PROPERTY
Tether
SciTegic.value.DoubleValue
0.000

@<TRIPOS>MOLECULE
CD_guest-s19_fast_vm2_rndm.mol2 : feprocess host+ligand conformer 4
         143         148           2
SMALL
USER_CHARGES
 
@<TRIPOS>ATOM
       1    C1      16.178046   15.240349   20.649211 C.3        1 MOL1         0.2972
       2    H1      15.142560   15.063800   20.330585 H          1 MOL1         0.0751
       3    O1      16.348820   16.549024   21.218554 O.3        1 MOL1        -0.3740
       4    C2      16.609994   14.221386   21.734925 C.3        1 MOL1         0.1003
       5    H2      16.520051   13.217759   21.299413 H          1 MOL1         0.0783
       6    O2      15.760818   14.314731   22.890892 O.3        1 MOL1        -0.5519
       7    H3      15.675077   15.275727   23.116006 H          1 MOL1         0.3769
       8    C3      18.091170   14.439759   22.139114 C.3        1 MOL1         0.1053
       9    H4      18.168771   15.410399   22.648075 H          1 MOL1         0.0783
      10    O3      18.488922   13.392129   23.029811 O.3        1 MOL1        -0.5519
      11    H5      17.727503   13.279155   23.643101 H          1 MOL1         0.3769
      12    C4      19.007570   14.475587   20.886539 C.3        1 MOL1         0.1018
      13    H6      19.075418   13.465869   20.461252 H          1 MOL1         0.0783
      14    C5      18.463997   15.445536   19.805658 C.3        1 MOL1         0.1043
      15    H7      18.524999   16.468402   20.198400 H          1 MOL1         0.0783
      16    O4      17.081233   15.117483   19.527044 O.3        1 MOL1        -0.3740
      17    C6      19.269617   15.429144   18.481814 C.3        1 MOL1         0.0138
      18    H8      20.153771   16.067628   18.609317 H          1 MOL1         0.0794
      19    H9      18.656589   15.883784   17.692410 H          1 MOL1         0.0794
      20    O5      19.682561   14.113153   18.092930 O.3        1 MOL1        -0.5486
      21    H10     20.371828   13.825539   18.731353 H          1 MOL1         0.3769
      22    C7      14.666429   20.244033   21.662906 C.3        1 MOL1         0.2972
      23    H11     14.039489   21.139080   21.767927 H          1 MOL1         0.0751
      24    O6      16.065373   20.580519   21.589700 O.3        1 MOL1        -0.3740
      25    C8      14.455338   19.310485   22.877704 C.3        1 MOL1         0.1003
      26    H12     13.404879   18.991705   22.876125 H          1 MOL1         0.0783
      27    O7      14.741476   20.008772   24.099958 O.3        1 MOL1        -0.5519
      28    H13     15.316497   20.775661   23.859809 H          1 MOL1         0.3769
      29    C9      15.341769   18.051490   22.751575 C.3        1 MOL1         0.1053
      30    H14     16.386787   18.369790   22.853962 H          1 MOL1         0.0783
      31    O8      15.022037   17.126202   23.796205 O.3        1 MOL1        -0.5519
      32    H15     14.999054   17.668916   24.615582 H          1 MOL1         0.3769
      33    C10     15.174078   17.362291   21.374093 C.3        1 MOL1         0.1018
      34    H16     14.253655   16.763864   21.392054 H          1 MOL1         0.0783
      35    C11     15.154083   18.358613   20.178728 C.3        1 MOL1         0.1043
      36    H17     16.185471   18.694742   20.019571 H          1 MOL1         0.0783
      37    O9      14.322115   19.511921   20.469225 O.3        1 MOL1        -0.3740
      38    C12     14.669736   17.729896   18.850348 C.3        1 MOL1         0.0138
      39    H18     15.442473   17.039139   18.487488 H          1 MOL1         0.0794
      40    H19     14.569478   18.526624   18.100977 H          1 MOL1         0.0794
      41    O10     13.427574   17.032600   19.005445 O.3        1 MOL1        -0.5486
      42    H20     13.147460   16.721797   18.116932 H          1 MOL1         0.3769
      43    C13     18.524835   23.888550   20.919829 C.3        1 MOL1         0.2972
      44    H21     18.921649   24.861032   20.601082 H          1 MOL1         0.0751
      45    O11     19.558893   23.034159   21.447328 O.3        1 MOL1        -0.3740
      46    C14     17.450099   24.064492   22.025030 C.3        1 MOL1         0.1003
      47    H22     16.640346   24.672080   21.600623 H          1 MOL1         0.0783
      48    O12     17.988553   24.738670   23.173210 O.3        1 MOL1        -0.5519
      49    H23     18.850180   24.302014   23.397198 H          1 MOL1         0.3769
      50    C15     16.854963   22.692403   22.428886 C.3        1 MOL1         0.1053
      51    H24     17.646816   22.099041   22.907207 H          1 MOL1         0.0783
      52    O13     15.773479   22.886298   23.346640 O.3        1 MOL1        -0.5519
      53    H25     16.102472   23.552542   23.990708 H          1 MOL1         0.3769
      54    C16     16.359916   21.925979   21.177615 C.3        1 MOL1         0.1018
      55    H26     15.472174   22.436777   20.781679 H          1 MOL1         0.0783
      56    C17     17.443252   21.867497   20.065265 C.3        1 MOL1         0.1043
      57    H27     18.283856   21.261864   20.423125 H          1 MOL1         0.0783
      58    O14     17.907413   23.212909   19.800757 O.3        1 MOL1        -0.3740
      59    C18     16.971103   21.233663   18.730700 C.3        1 MOL1         0.0138
      60    H28     17.181003   20.157592   18.764866 H          1 MOL1         0.0794
      61    H29     17.578920   21.645700   17.914195 H          1 MOL1         0.0794
      62    O15     15.579220   21.444993   18.461170 O.3        1 MOL1        -0.5486
      63    H30     15.070327   20.893942   19.100727 H          1 MOL1         0.3769
      64    C19     23.666295   22.795940   21.941811 C.3        1 MOL1         0.2972
      65    H31     24.740308   22.997031   22.042259 H          1 MOL1         0.0751
      66    O16     23.391585   21.377901   21.972147 O.3        1 MOL1        -0.3740
      67    C20     22.902567   23.495320   23.092759 C.3        1 MOL1         0.1003
      68    H32     23.026154   24.576073   22.946187 H          1 MOL1         0.0783
      69    O17     23.459932   23.153618   24.370241 O.3        1 MOL1        -0.5519
      70    H33     23.130488   22.250431   24.619632 H          1 MOL1         0.3769
      71    C21     21.390367   23.179931   22.987347 C.3        1 MOL1         0.1053
      72    H34     21.248562   22.094371   23.062757 H          1 MOL1         0.0783
      73    O18     20.661161   23.838875   24.030421 O.3        1 MOL1        -0.5519
      74    H35     20.911177   23.362207   24.866136 H          1 MOL1         0.3769
      75    C22     20.862985   23.624661   21.602834 C.3        1 MOL1         0.1018
      76    H36     20.824379   24.721861   21.583724 H          1 MOL1         0.0783
      77    C23     21.750448   23.096290   20.438638 C.3        1 MOL1         0.1043
      78    H37     21.583305   22.013785   20.362683 H          1 MOL1         0.0783
      79    O19     23.158893   23.338936   20.703625 O.3        1 MOL1        -0.3740
      80    C24     21.401191   23.720515   19.066030 C.3        1 MOL1         0.0138
      81    H38     20.429901   23.325369   18.739510 H          1 MOL1         0.0794
      82    H39     22.148982   23.395483   18.330528 H          1 MOL1         0.0794
      83    O20     21.349964   25.151644   19.122462 O.3        1 MOL1        -0.5486
      84    H40     21.185863   25.479909   18.211727 H          1 MOL1         0.3769
      85    C25     25.084206   17.705123   20.909703 C.3        1 MOL1         0.2972
      86    H41     25.735890   16.895233   20.557477 H          1 MOL1         0.0751
      87    O21     23.730686   17.243137   21.111140 O.3        1 MOL1        -0.3740
      88    C26     25.629360   18.339838   22.217045 C.3        1 MOL1         0.1003
      89    H42     26.594637   18.802020   21.973880 H          1 MOL1         0.0783
      90    O22     25.846716   17.343781   23.226782 O.3        1 MOL1        -0.5519
      91    H43     24.953171   17.052481   23.535134 H          1 MOL1         0.3769
      92    C27     24.672911   19.468132   22.690090 C.3        1 MOL1         0.1053
      93    H44     23.698869   19.019451   22.926370 H          1 MOL1         0.0783
      94    O23     25.189114   20.120727   23.854847 O.3        1 MOL1        -0.5519
      95    H45     24.388131   20.376087   24.384609 H          1 MOL1         0.3769
      96    C28     24.469458   20.510822   21.556768 C.3        1 MOL1         0.1018
      97    H46     25.410670   21.063055   21.437937 H          1 MOL1         0.0783
      98    C29     24.097604   19.832868   20.202265 C.3        1 MOL1         0.1043
      99    H47     23.089517   19.411694   20.294111 H          1 MOL1         0.0783
     100    O24     25.035663   18.761414   19.927238 O.3        1 MOL1        -0.3740
     101    C30     24.081054   20.766997   18.965463 C.3        1 MOL1         0.0138
     102    H48     23.081171   21.205622   18.871584 H          1 MOL1         0.0794
     103    H49     24.239498   20.155883   18.066887 H          1 MOL1         0.0794
     104    O25     25.061883   21.808032   19.026343 O.3        1 MOL1        -0.5486
     105    H50     24.664852   22.533675   19.562009 H          1 MOL1         0.3769
     106    C31     21.266169   13.998954   21.694037 C.3        1 MOL1         0.2972
     107    H51     20.801762   13.020276   21.870737 H          1 MOL1         0.0751
     108    O26     20.301872   14.977627   21.261522 O.3        1 MOL1        -0.3740
     109    C32     21.937688   14.515608   22.988039 C.3        1 MOL1         0.1003
     110    H52     22.727966   13.801516   23.253843 H          1 MOL1         0.0783
     111    O27     20.994188   14.599175   24.069137 O.3        1 MOL1        -0.5519
     112    H53     20.137564   14.238376   23.734181 H          1 MOL1         0.3769
     113    C33     22.595235   15.892333   22.742828 C.3        1 MOL1         0.1053
     114    H54     21.800165   16.617818   22.534960 H          1 MOL1         0.0783
     115    O28     23.298010   16.275648   23.927132 O.3        1 MOL1        -0.5519
     116    H55     22.650220   16.132259   24.653458 H          1 MOL1         0.3769
     117    C34     23.542404   15.871360   21.514298 C.3        1 MOL1         0.1018
     118    H56     24.486560   15.388995   21.799759 H          1 MOL1         0.0783
     119    C35     22.915349   15.145576   20.287966 C.3        1 MOL1         0.1043
     120    H57     22.148840   15.807583   19.864773 H          1 MOL1         0.0783
     121    O29     22.288604   13.897365   20.681075 O.3        1 MOL1        -0.3740
     122    C36     23.934076   14.851705   19.161034 C.3        1 MOL1         0.0138
     123    H58     24.220619   15.804038   18.694590 H          1 MOL1         0.0794
     124    H59     23.438869   14.246622   18.389789 H          1 MOL1         0.0794
     125    O30     25.101882   14.179430   19.649125 O.3        1 MOL1        -0.5486
     126    H60     25.665435   13.961032   18.874934 H          1 MOL1         0.3769
     127    C1      21.507522   20.825233   25.389238 C.2        1 MOL1         0.6173
     128    O1      22.664614   20.547128   25.127057 O.co2      1 MOL1        -0.6755
     129    O2      21.203266   21.829129   26.004105 O.co2      1 MOL1        -0.6755
     130    C2      20.400152   20.046337   24.773814 C.2        1 MOL1        -0.1504
     131    H1      19.395704   20.415023   24.967440 H          1 MOL1         0.0814
     132    C3      20.588825   18.971044   23.977842 C.2        1 MOL1        -0.1394
     133    H2      21.591815   18.606169   23.766529 H          1 MOL1         0.0817
     134    C4      19.461656   18.239602   23.280524 C.3        1 MOL1        -0.1849
     135    H3      18.579229   18.207985   23.932910 H          1 MOL1         0.0736
     136    H4      19.741100   17.195674   23.096410 H          1 MOL1         0.0736
     137    C5      19.087429   18.923664   21.948428 C.3        1 MOL1        -0.1866
     138    H5      18.233135   18.405937   21.498913 H          1 MOL1         0.0738
     139    H6      18.761639   19.949809   22.159141 H          1 MOL1         0.0738
     140    C6      20.253172   18.948016   20.937847 C.3        1 MOL1        -0.2879
     141    H7      20.628466   17.934912   20.744894 H          1 MOL1         0.0750
     142    H8      19.932172   19.383517   19.983741 H          1 MOL1         0.0750
     143    H9      21.081868   19.554071   21.324496 H          1 MOL1         0.0750
@<TRIPOS>BOND
    1     1     2    1
    2     1     3    1
    3     1     4    1
    4     4     5    1
    5     4     6    1
    6     6     7    1
    7     4     8    1
    8     8     9    1
    9     8    10    1
   10    10    11    1
   11     8    12    1
   12    12    13    1
   13    12    14    1
   14    14    15    1
   15     1    16    1
   16    14    16    1
   17    14    17    1
   18    17    18    1
   19    17    19    1
   20    17    20    1
   21    20    21    1
   22    22    23    1
   23    22    24    1
   24    22    25    1
   25    25    26    1
   26    25    27    1
   27    27    28    1
   28    25    29    1
   29    29    30    1
   30    29    31    1
   31    31    32    1
   32     3    33    1
   33    29    33    1
   34    33    34    1
   35    33    35    1
   36    35    36    1
   37    22    37    1
   38    35    37    1
   39    35    38    1
   40    38    39    1
   41    38    40    1
   42    38    41    1
   43    41    42    1
   44    43    44    1
   45    43    45    1
   46    43    46    1
   47    46    47    1
   48    46    48    1
   49    48    49    1
   50    46    50    1
   51    50    51    1
   52    50    52    1
   53    52    53    1
   54    24    54    1
   55    50    54    1
   56    54    55    1
   57    54    56    1
   58    56    57    1
   59    43    58    1
   60    56    58    1
   61    56    59    1
   62    59    60    1
   63    59    61    1
   64    59    62    1
   65    62    63    1
   66    64    65    1
   67    64    66    1
   68    64    67    1
   69    67    68    1
   70    67    69    1
   71    69    70    1
   72    67    71    1
   73    71    72    1
   74    71    73    1
   75    73    74    1
   76    45    75    1
   77    71    75    1
   78    75    76    1
   79    75    77    1
   80    77    78    1
   81    64    79    1
   82    77    79    1
   83    77    80    1
   84    80    81    1
   85    80    82    1
   86    80    83    1
   87    83    84    1
   88    85    86    1
   89    85    87    1
   90    85    88    1
   91    88    89    1
   92    88    90    1
   93    90    91    1
   94    88    92    1
   95    92    93    1
   96    92    94    1
   97    94    95    1
   98    66    96    1
   99    92    96    1
  100    96    97    1
  101    96    98    1
  102    98    99    1
  103    85   100    1
  104    98   100    1
  105    98   101    1
  106   101   102    1
  107   101   103    1
  108   101   104    1
  109   104   105    1
  110   106   107    1
  111    12   108    1
  112   106   108    1
  113   106   109    1
  114   109   110    1
  115   109   111    1
  116   111   112    1
  117   109   113    1
  118   113   114    1
  119   113   115    1
  120   115   116    1
  121    87   117    1
  122   113   117    1
  123   117   118    1
  124   117   119    1
  125   119   120    1
  126   106   121    1
  127   119   121    1
  128   119   122    1
  129   122   123    1
  130   122   124    1
  131   122   125    1
  132   125   126    1
  133   127   128    1
  134   127   129    2
  135   127   130    1
  136   130   131    1
  137   130   132    2
  138   132   133    1
  139   132   134    1
  140   134   135    1
  141   134   136    1
  142   134   137    1
  143   137   138    1
  144   137   139    1
  145   137   140    1
  146   140   141    1
  147   140   142    1
  148   140   143    1
@<TRIPOS>SUBSTRUCTURE
       1 MOL1            1 RESIDUE      1      MOL     
       2 MOL1          143 RESIDUE      1      MOL     
@<SCITEGIC>MOL_PROPERTY
feprocess Rank
SciTegic.value.IntegerValue
4

@<SCITEGIC>MOL_PROPERTY
Conf_Id
SciTegic.value.IntegerValue
767

@<SCITEGIC>MOL_PROPERTY
Probability
SciTegic.value.DoubleValue
1.91

@<SCITEGIC>MOL_PROPERTY
G
SciTegic.value.DoubleValue
496.973

@<SCITEGIC>MOL_PROPERTY
E
SciTegic.value.DoubleValue
313.436

@<SCITEGIC>MOL_PROPERTY
-TS
SciTegic.value.DoubleValue
183.537

@<SCITEGIC>MOL_PROPERTY
U+W
SciTegic.value.DoubleValue
187.347

@<SCITEGIC>MOL_PROPERTY
U
SciTegic.value.DoubleValue
264.983

@<SCITEGIC>MOL_PROPERTY
W
SciTegic.value.DoubleValue
-77.636

@<SCITEGIC>MOL_PROPERTY
W(PB)
SciTegic.value.DoubleValue
-83.645

@<SCITEGIC>MOL_PROPERTY
W(SA)
SciTegic.value.DoubleValue
6.009

@<SCITEGIC>MOL_PROPERTY
Valence
SciTegic.value.DoubleValue
150.141

@<SCITEGIC>MOL_PROPERTY
Coulomb
SciTegic.value.DoubleValue
138.077

@<SCITEGIC>MOL_PROPERTY
VdW
SciTegic.value.DoubleValue
-23.235

@<SCITEGIC>MOL_PROPERTY
VdW6
SciTegic.value.DoubleValue
-182.168

@<SCITEGIC>MOL_PROPERTY
VdW12
SciTegic.value.DoubleValue
158.933

@<SCITEGIC>MOL_PROPERTY
Bond
SciTegic.value.DoubleValue
5.013

@<SCITEGIC>MOL_PROPERTY
Angle
SciTegic.value.DoubleValue
14.475

@<SCITEGIC>MOL_PROPERTY
Pdih
SciTegic.value.DoubleValue
130.580

@<SCITEGIC>MOL_PROPERTY
Idih
SciTegic.value.DoubleValue
0.072

@<SCITEGIC>MOL_PROPERTY
Tether
SciTegic.value.DoubleValue
0.000

@<TRIPOS>MOLECULE
CD_guest-s19_fast_vm2_rndm.mol2 : feprocess host+ligand conformer 5
         143         148           2
SMALL
USER_CHARGES
 
@<TRIPOS>ATOM
       1    C1      16.321385   15.163331   20.587676 C.3        1 MOL1         0.2972
       2    H1      15.283280   15.032177   20.256708 H          1 MOL1         0.0751
       3    O1      16.635853   16.560357   20.786988 O.3        1 MOL1        -0.3740
       4    C2      16.602499   14.359223   21.888367 C.3        1 MOL1         0.1003
       5    H2      16.466670   13.297878   21.642916 H          1 MOL1         0.0783
       6    O2      15.700227   14.700738   22.950276 O.3        1 MOL1        -0.5519
       7    H3      15.893690   15.640761   23.194745 H          1 MOL1         0.3769
       8    C3      18.071343   14.556618   22.333704 C.3        1 MOL1         0.1053
       9    H4      18.210882   15.611381   22.607799 H          1 MOL1         0.0783
      10    O3      18.353110   13.722234   23.462278 O.3        1 MOL1        -0.5519
      11    H5      17.577698   13.823976   24.057926 H          1 MOL1         0.3769
      12    C4      19.043499   14.221316   21.176410 C.3        1 MOL1         0.1018
      13    H6      19.063472   13.131947   21.042170 H          1 MOL1         0.0783
      14    C5      18.635889   14.895753   19.836141 C.3        1 MOL1         0.1043
      15    H7      18.796218   15.973830   19.931594 H          1 MOL1         0.0783
      16    O4      17.228848   14.651443   19.582895 O.3        1 MOL1        -0.3740
      17    C6      19.465526   14.446385   18.604791 C.3        1 MOL1         0.0138
      18    H8      20.317129   15.130133   18.495678 H          1 MOL1         0.0794
      19    H9      18.847730   14.564633   17.704650 H          1 MOL1         0.0794
      20    O5      19.946751   13.100083   18.699714 O.3        1 MOL1        -0.5486
      21    H10     20.702856   13.109410   19.331193 H          1 MOL1         0.3769
      22    C7      14.966919   20.292734   21.597111 C.3        1 MOL1         0.2972
      23    H11     14.296189   21.118308   21.867010 H          1 MOL1         0.0751
      24    O6      16.189212   20.776644   21.005822 O.3        1 MOL1        -0.3740
      25    C8      15.299603   19.432267   22.845876 C.3        1 MOL1         0.1003
      26    H12     14.347125   19.036369   23.221736 H          1 MOL1         0.0783
      27    O7      15.923779   20.202802   23.884908 O.3        1 MOL1        -0.5519
      28    H13     15.742823   21.153763   23.692075 H          1 MOL1         0.3769
      29    C9      16.198559   18.231743   22.470966 C.3        1 MOL1         0.1053
      30    H14     17.174367   18.622993   22.154290 H          1 MOL1         0.0783
      31    O8      16.359252   17.406542   23.628737 O.3        1 MOL1        -0.5519
      32    H15     16.597912   18.038052   24.344992 H          1 MOL1         0.3769
      33    C10     15.592941   17.416943   21.298554 C.3        1 MOL1         0.1018
      34    H16     14.735984   16.841858   21.672863 H          1 MOL1         0.0783
      35    C11     15.135801   18.334277   20.129472 C.3        1 MOL1         0.1043
      36    H17     16.032721   18.744019   19.646870 H          1 MOL1         0.0783
      37    O9      14.326464   19.427838   20.634660 O.3        1 MOL1        -0.3740
      38    C12     14.327982   17.588598   19.040445 C.3        1 MOL1         0.0138
      39    H18     15.013284   16.929574   18.490296 H          1 MOL1         0.0794
      40    H19     13.940713   18.326578   18.325268 H          1 MOL1         0.0794
      41    O10     13.253254   16.818335   19.594029 O.3        1 MOL1        -0.5486
      42    H20     12.741098   16.441029   18.845829 H          1 MOL1         0.3769
      43    C13     18.498613   24.186992   20.863363 C.3        1 MOL1         0.2972
      44    H21     18.961652   25.169709   20.706072 H          1 MOL1         0.0751
      45    O11     19.466710   23.193688   21.262879 O.3        1 MOL1        -0.3740
      46    C14     17.384641   24.253304   21.936667 C.3        1 MOL1         0.1003
      47    H22     16.595789   24.907770   21.543241 H          1 MOL1         0.0783
      48    O12     17.866418   24.801809   23.172342 O.3        1 MOL1        -0.5519
      49    H23     18.638099   24.249384   23.458132 H          1 MOL1         0.3769
      50    C15     16.768802   22.850221   22.162732 C.3        1 MOL1         0.1053
      51    H24     17.538826   22.206734   22.611988 H          1 MOL1         0.0783
      52    O13     15.659396   22.982806   23.058819 O.3        1 MOL1        -0.5519
      53    H25     15.954199   23.641715   23.728610 H          1 MOL1         0.3769
      54    C16     16.315836   22.202414   20.821741 C.3        1 MOL1         0.1018
      55    H26     15.361883   22.649165   20.515077 H          1 MOL1         0.0783
      56    C17     17.353651   22.384232   19.675508 C.3        1 MOL1         0.1043
      57    H27     18.191842   21.704802   19.861276 H          1 MOL1         0.0783
      58    O14     17.864203   23.738997   19.647599 O.3        1 MOL1        -0.3740
      59    C18     16.798788   22.026983   18.274902 C.3        1 MOL1         0.0138
      60    H28     16.646207   20.940222   18.227056 H          1 MOL1         0.0794
      61    H29     17.560233   22.280259   17.525464 H          1 MOL1         0.0794
      62    O15     15.570968   22.702745   17.975399 O.3        1 MOL1        -0.5486
      63    H30     14.859502   22.266343   18.490924 H          1 MOL1         0.3769
      64    C19     23.419908   22.601109   22.315776 C.3        1 MOL1         0.2972
      65    H31     24.470961   22.683101   22.621600 H          1 MOL1         0.0751
      66    O16     23.093637   21.255651   21.920224 O.3        1 MOL1        -0.3740
      67    C20     22.497228   23.041727   23.479852 C.3        1 MOL1         0.1003
      68    H32     22.688066   24.109968   23.645426 H          1 MOL1         0.0783
      69    O17     22.794848   22.339901   24.695853 O.3        1 MOL1        -0.5519
      70    H33     22.436296   21.413698   24.615752 H          1 MOL1         0.3769
      71    C21     21.011369   22.888550   23.082169 C.3        1 MOL1         0.1053
      72    H34     20.802304   21.824048   22.905975 H          1 MOL1         0.0783
      73    O18     20.184574   23.375168   24.144058 O.3        1 MOL1        -0.5519
      74    H35     20.509398   22.911508   24.948786 H          1 MOL1         0.3769
      75    C22     20.724186   23.673463   21.776526 C.3        1 MOL1         0.1018
      76    H36     20.691991   24.745672   22.011620 H          1 MOL1         0.0783
      77    C23     21.782274   23.398911   20.669577 C.3        1 MOL1         0.1043
      78    H37     21.595217   22.385700   20.298050 H          1 MOL1         0.0783
      79    O19     23.137644   23.465795   21.192637 O.3        1 MOL1        -0.3740
      80    C24     21.672150   24.359517   19.461406 C.3        1 MOL1         0.0138
      81    H38     20.748609   24.126511   18.914054 H          1 MOL1         0.0794
      82    H39     22.511677   24.167654   18.779825 H          1 MOL1         0.0794
      83    O20     21.662833   25.733851   19.866949 O.3        1 MOL1        -0.5486
      84    H40     21.664386   26.284491   19.053758 H          1 MOL1         0.3769
      85    C25     24.832549   17.678824   20.728354 C.3        1 MOL1         0.2972
      86    H41     25.457763   16.886643   20.296867 H          1 MOL1         0.0751
      87    O21     23.568018   17.164350   21.186581 O.3        1 MOL1        -0.3740
      88    C26     25.551778   18.380179   21.909659 C.3        1 MOL1         0.1003
      89    H42     26.473528   18.818688   21.505742 H          1 MOL1         0.0783
      90    O22     25.898645   17.448590   22.946160 O.3        1 MOL1        -0.5519
      91    H43     25.055661   17.029792   23.256071 H          1 MOL1         0.3769
      92    C27     24.693052   19.536185   22.483464 C.3        1 MOL1         0.1053
      93    H44     23.822090   19.101744   22.995502 H          1 MOL1         0.0783
      94    O23     25.491843   20.276055   23.412650 O.3        1 MOL1        -0.5519
      95    H45     25.851960   19.608318   24.035827 H          1 MOL1         0.3769
      96    C28     24.175895   20.481917   21.365355 C.3        1 MOL1         0.1018
      97    H46     25.007506   21.120291   21.040022 H          1 MOL1         0.0783
      98    C29     23.614339   19.712692   20.134579 C.3        1 MOL1         0.1043
      99    H47     22.669182   19.238138   20.425981 H          1 MOL1         0.0783
     100    O24     24.560133   18.690676   19.735830 O.3        1 MOL1        -0.3740
     101    C30     23.305476   20.596605   18.897282 C.3        1 MOL1         0.0138
     102    H48     22.253866   20.903282   18.941652 H          1 MOL1         0.0794
     103    H49     23.408934   19.980704   17.993967 H          1 MOL1         0.0794
     104    O25     24.146020   21.754129   18.798536 O.3        1 MOL1        -0.5486
     105    H50     23.941047   22.334617   19.567946 H          1 MOL1         0.3769
     106    C31     21.353383   13.780374   21.836737 C.3        1 MOL1         0.2972
     107    H51     20.937204   12.781423   22.020110 H          1 MOL1         0.0751
     108    O26     20.325311   14.746700   21.554338 O.3        1 MOL1        -0.3740
     109    C32     22.130716   14.265952   23.081610 C.3        1 MOL1         0.1003
     110    H52     22.972515   13.578928   23.237894 H          1 MOL1         0.0783
     111    O27     21.282822   14.250744   24.241192 O.3        1 MOL1        -0.5519
     112    H53     20.352898   14.344645   23.918584 H          1 MOL1         0.3769
     113    C33     22.704304   15.681634   22.844385 C.3        1 MOL1         0.1053
     114    H54     21.861682   16.382628   22.783149 H          1 MOL1         0.0783
     115    O28     23.547175   16.038456   23.944797 O.3        1 MOL1        -0.5519
     116    H55     23.006398   15.855522   24.745192 H          1 MOL1         0.3769
     117    C34     23.501968   15.764550   21.517090 C.3        1 MOL1         0.1018
     118    H56     24.497700   15.330848   21.678831 H          1 MOL1         0.0783
     119    C35     22.793201   15.055510   20.324266 C.3        1 MOL1         0.1043
     120    H57     21.960619   15.694957   20.005969 H          1 MOL1         0.0783
     121    O29     22.265420   13.762179   20.719952 O.3        1 MOL1        -0.3740
     122    C36     23.703848   14.855588   19.089547 C.3        1 MOL1         0.0138
     123    H58     23.887062   15.835912   18.629206 H          1 MOL1         0.0794
     124    H59     23.165132   14.245390   18.352142 H          1 MOL1         0.0794
     125    O30     24.950732   14.238071   19.431837 O.3        1 MOL1        -0.5486
     126    H60     25.438193   14.067094   18.596568 H          1 MOL1         0.3769
     127    C1      20.559810   19.100896   24.988426 C.2        1 MOL1         0.6173
     128    O1      20.053096   18.749498   26.036383 O.co2      1 MOL1        -0.6755
     129    O2      21.448338   19.930823   24.920709 O.co2      1 MOL1        -0.6755
     130    C2      20.046789   18.484469   23.735929 C.2        1 MOL1        -0.1504
     131    H1      19.239878   17.765210   23.851185 H          1 MOL1         0.0814
     132    C3      20.535032   18.783940   22.512430 C.2        1 MOL1        -0.1394
     133    H2      21.345856   19.498440   22.405023 H          1 MOL1         0.0817
     134    C4      20.026758   18.184100   21.224169 C.3        1 MOL1        -0.1849
     135    H3      19.212515   17.483067   21.437946 H          1 MOL1         0.0736
     136    H4      20.827865   17.610890   20.743092 H          1 MOL1         0.0736
     137    C5      19.523872   19.284536   20.273508 C.3        1 MOL1        -0.1866
     138    H5      18.674158   19.789397   20.747231 H          1 MOL1         0.0738
     139    H6      20.306520   20.041623   20.135137 H          1 MOL1         0.0738
     140    C6      19.100565   18.723918   18.901538 C.3        1 MOL1        -0.2879
     141    H7      19.933964   18.197094   18.419427 H          1 MOL1         0.0750
     142    H8      18.263601   18.022819   19.005501 H          1 MOL1         0.0750
     143    H9      18.781354   19.534519   18.235093 H          1 MOL1         0.0750
@<TRIPOS>BOND
    1     1     2    1
    2     1     3    1
    3     1     4    1
    4     4     5    1
    5     4     6    1
    6     6     7    1
    7     4     8    1
    8     8     9    1
    9     8    10    1
   10    10    11    1
   11     8    12    1
   12    12    13    1
   13    12    14    1
   14    14    15    1
   15     1    16    1
   16    14    16    1
   17    14    17    1
   18    17    18    1
   19    17    19    1
   20    17    20    1
   21    20    21    1
   22    22    23    1
   23    22    24    1
   24    22    25    1
   25    25    26    1
   26    25    27    1
   27    27    28    1
   28    25    29    1
   29    29    30    1
   30    29    31    1
   31    31    32    1
   32     3    33    1
   33    29    33    1
   34    33    34    1
   35    33    35    1
   36    35    36    1
   37    22    37    1
   38    35    37    1
   39    35    38    1
   40    38    39    1
   41    38    40    1
   42    38    41    1
   43    41    42    1
   44    43    44    1
   45    43    45    1
   46    43    46    1
   47    46    47    1
   48    46    48    1
   49    48    49    1
   50    46    50    1
   51    50    51    1
   52    50    52    1
   53    52    53    1
   54    24    54    1
   55    50    54    1
   56    54    55    1
   57    54    56    1
   58    56    57    1
   59    43    58    1
   60    56    58    1
   61    56    59    1
   62    59    60    1
   63    59    61    1
   64    59    62    1
   65    62    63    1
   66    64    65    1
   67    64    66    1
   68    64    67    1
   69    67    68    1
   70    67    69    1
   71    69    70    1
   72    67    71    1
   73    71    72    1
   74    71    73    1
   75    73    74    1
   76    45    75    1
   77    71    75    1
   78    75    76    1
   79    75    77    1
   80    77    78    1
   81    64    79    1
   82    77    79    1
   83    77    80    1
   84    80    81    1
   85    80    82    1
   86    80    83    1
   87    83    84    1
   88    85    86    1
   89    85    87    1
   90    85    88    1
   91    88    89    1
   92    88    90    1
   93    90    91    1
   94    88    92    1
   95    92    93    1
   96    92    94    1
   97    94    95    1
   98    66    96    1
   99    92    96    1
  100    96    97    1
  101    96    98    1
  102    98    99    1
  103    85   100    1
  104    98   100    1
  105    98   101    1
  106   101   102    1
  107   101   103    1
  108   101   104    1
  109   104   105    1
  110   106   107    1
  111    12   108    1
  112   106   108    1
  113   106   109    1
  114   109   110    1
  115   109   111    1
  116   111   112    1
  117   109   113    1
  118   113   114    1
  119   113   115    1
  120   115   116    1
  121    87   117    1
  122   113   117    1
  123   117   118    1
  124   117   119    1
  125   119   120    1
  126   106   121    1
  127   119   121    1
  128   119   122    1
  129   122   123    1
  130   122   124    1
  131   122   125    1
  132   125   126    1
  133   127   128    1
  134   127   129    2
  135   127   130    1
  136   130   131    1
  137   130   132    2
  138   132   133    1
  139   132   134    1
  140   134   135    1
  141   134   136    1
  142   134   137    1
  143   137   138    1
  144   137   139    1
  145   137   140    1
  146   140   141    1
  147   140   142    1
  148   140   143    1
@<TRIPOS>SUBSTRUCTURE
       1 MOL1            1 RESIDUE      1      MOL     
       2 MOL1          143 RESIDUE      1      MOL     
@<SCITEGIC>MOL_PROPERTY
feprocess Rank
SciTegic.value.IntegerValue
5

@<SCITEGIC>MOL_PROPERTY
Conf_Id
SciTegic.value.IntegerValue
669

@<SCITEGIC>MOL_PROPERTY
Probability
SciTegic.value.DoubleValue
1.44

@<SCITEGIC>MOL_PROPERTY
G
SciTegic.value.DoubleValue
497.139

@<SCITEGIC>MOL_PROPERTY
E
SciTegic.value.DoubleValue
315.503

@<SCITEGIC>MOL_PROPERTY
-TS
SciTegic.value.DoubleValue
181.636

@<SCITEGIC>MOL_PROPERTY
U+W
SciTegic.value.DoubleValue
189.414

@<SCITEGIC>MOL_PROPERTY
U
SciTegic.value.DoubleValue
270.971

@<SCITEGIC>MOL_PROPERTY
W
SciTegic.value.DoubleValue
-81.556

@<SCITEGIC>MOL_PROPERTY
W(PB)
SciTegic.value.DoubleValue
-87.559

@<SCITEGIC>MOL_PROPERTY
W(SA)
SciTegic.value.DoubleValue
6.003

@<SCITEGIC>MOL_PROPERTY
Valence
SciTegic.value.DoubleValue
147.128

@<SCITEGIC>MOL_PROPERTY
Coulomb
SciTegic.value.DoubleValue
147.719

@<SCITEGIC>MOL_PROPERTY
VdW
SciTegic.value.DoubleValue
-23.876

@<SCITEGIC>MOL_PROPERTY
VdW6
SciTegic.value.DoubleValue
-179.064

@<SCITEGIC>MOL_PROPERTY
VdW12
SciTegic.value.DoubleValue
155.188

@<SCITEGIC>MOL_PROPERTY
Bond
SciTegic.value.DoubleValue
4.931

@<SCITEGIC>MOL_PROPERTY
Angle
SciTegic.value.DoubleValue
14.581

@<SCITEGIC>MOL_PROPERTY
Pdih
SciTegic.value.DoubleValue
127.615

@<SCITEGIC>MOL_PROPERTY
Idih
SciTegic.value.DoubleValue
0.000

@<SCITEGIC>MOL_PROPERTY
Tether
SciTegic.value.DoubleValue
0.000

@<TRIPOS>MOLECULE
CD_guest-s19_fast_vm2_rndm.mol2 : feprocess host+ligand conformer 6
         143         148           2
SMALL
USER_CHARGES
 
@<TRIPOS>ATOM
       1    C1      16.268445   15.044748   21.560766 C.3        1 MOL1         0.2972
       2    H1      15.198157   14.874519   21.734563 H          1 MOL1         0.0751
       3    O1      16.568359   16.451425   21.409955 O.3        1 MOL1        -0.3740
       4    C2      17.127949   14.450950   22.707668 C.3        1 MOL1         0.1003
       5    H2      17.011440   13.360167   22.670912 H          1 MOL1         0.0783
       6    O2      16.677832   14.910921   23.989490 O.3        1 MOL1        -0.5519
       7    H3      16.807491   15.891411   24.012485 H          1 MOL1         0.3769
       8    C3      18.623521   14.772717   22.450342 C.3        1 MOL1         0.1053
       9    H4      18.745577   15.862834   22.464093 H          1 MOL1         0.0783
      10    O3      19.461994   14.183818   23.453160 O.3        1 MOL1        -0.5519
      11    H5      19.698880   14.923707   24.074990 H          1 MOL1         0.3769
      12    C4      19.056757   14.260894   21.051055 C.3        1 MOL1         0.1018
      13    H6      19.181099   13.171254   21.104393 H          1 MOL1         0.0783
      14    C5      18.043675   14.626154   19.925154 C.3        1 MOL1         0.1043
      15    H7      18.146798   15.695929   19.706357 H          1 MOL1         0.0783
      16    O4      16.682521   14.370388   20.353976 O.3        1 MOL1        -0.3740
      17    C6      18.290738   13.869731   18.598041 C.3        1 MOL1         0.0138
      18    H8      19.205638   14.266075   18.137122 H          1 MOL1         0.0794
      19    H9      17.460841   14.087081   17.912377 H          1 MOL1         0.0794
      20    O5      18.417675   12.455661   18.794665 O.3        1 MOL1        -0.5486
      21    H10     18.488128   12.036914   17.909098 H          1 MOL1         0.3769
      22    C7      15.074656   20.292986   21.833847 C.3        1 MOL1         0.2972
      23    H11     14.468572   21.182138   22.045571 H          1 MOL1         0.0751
      24    O6      16.189740   20.601485   20.971522 O.3        1 MOL1        -0.3740
      25    C8      15.613173   19.670664   23.149644 C.3        1 MOL1         0.1003
      26    H12     14.740875   19.389028   23.753362 H          1 MOL1         0.0783
      27    O7      16.404477   20.615716   23.887270 O.3        1 MOL1        -0.5519
      28    H13     16.115235   21.516784   23.612263 H          1 MOL1         0.3769
      29    C9      16.426124   18.384041   22.857606 C.3        1 MOL1         0.1053
      30    H14     17.335464   18.669061   22.315297 H          1 MOL1         0.0783
      31    O8      16.772577   17.746539   24.090887 O.3        1 MOL1        -0.5519
      32    H15     17.531030   18.264275   24.474296 H          1 MOL1         0.3769
      33    C10     15.628313   17.394301   21.966954 C.3        1 MOL1         0.1018
      34    H16     14.869256   16.899703   22.587349 H          1 MOL1         0.0783
      35    C11     14.950653   18.094946   20.756348 C.3        1 MOL1         0.1043
      36    H17     15.735564   18.369312   20.039157 H          1 MOL1         0.0783
      37    O9      14.260709   19.295548   21.182414 O.3        1 MOL1        -0.3740
      38    C12     13.943823   17.187118   20.009691 C.3        1 MOL1         0.0138
      39    H18     14.506553   16.402098   19.486304 H          1 MOL1         0.0794
      40    H19     13.431531   17.786571   19.245341 H          1 MOL1         0.0794
      41    O10     12.989996   16.589781   20.897682 O.3        1 MOL1        -0.5486
      42    H20     12.350502   16.083627   20.350525 H          1 MOL1         0.3769
      43    C13     18.524781   23.903056   20.060883 C.3        1 MOL1         0.2972
      44    H21     18.973742   24.828942   19.678972 H          1 MOL1         0.0751
      45    O11     19.524784   23.019702   20.616253 O.3        1 MOL1        -0.3740
      46    C14     17.426712   24.197987   21.114747 C.3        1 MOL1         0.1003
      47    H22     16.615645   24.720394   20.590528 H          1 MOL1         0.0783
      48    O12     17.896631   25.043460   22.173860 O.3        1 MOL1        -0.5519
      49    H23     18.585817   24.528574   22.663911 H          1 MOL1         0.3769
      50    C15     16.849882   22.872201   21.670364 C.3        1 MOL1         0.1053
      51    H24     17.655032   22.338593   22.194761 H          1 MOL1         0.0783
      52    O13     15.794651   23.189568   22.585851 O.3        1 MOL1        -0.5519
      53    H25     16.106655   23.992627   23.062663 H          1 MOL1         0.3769
      54    C16     16.335630   21.963985   20.513525 C.3        1 MOL1         0.1018
      55    H26     15.379209   22.359783   20.150095 H          1 MOL1         0.0783
      56    C17     17.344421   21.886105   19.330460 C.3        1 MOL1         0.1043
      57    H27     18.181680   21.255296   19.649230 H          1 MOL1         0.0783
      58    O14     17.858238   23.199300   18.991194 O.3        1 MOL1        -0.3740
      59    C18     16.756796   21.234219   18.054680 C.3        1 MOL1         0.0138
      60    H28     16.626615   20.159429   18.240555 H          1 MOL1         0.0794
      61    H29     17.490756   21.334621   17.244268 H          1 MOL1         0.0794
      62    O15     15.507153   21.814661   17.660464 O.3        1 MOL1        -0.5486
      63    H30     14.823835   21.499832   18.290030 H          1 MOL1         0.3769
      64    C19     23.308726   22.784531   22.297784 C.3        1 MOL1         0.2972
      65    H31     24.296747   22.972429   22.736727 H          1 MOL1         0.0751
      66    O16     23.115111   21.391009   21.984117 O.3        1 MOL1        -0.3740
      67    C20     22.195137   23.233942   23.274737 C.3        1 MOL1         0.1003
      68    H32     22.296903   24.318848   23.408552 H          1 MOL1         0.0783
      69    O17     22.324335   22.596653   24.554580 O.3        1 MOL1        -0.5519
      70    H33     22.793133   21.737064   24.410596 H          1 MOL1         0.3769
      71    C21     20.799456   22.964388   22.668860 C.3        1 MOL1         0.1053
      72    H34     20.674059   21.879268   22.561150 H          1 MOL1         0.0783
      73    O18     19.811871   23.478202   23.566023 O.3        1 MOL1        -0.5519
      74    H35     20.078357   23.135375   24.449097 H          1 MOL1         0.3769
      75    C22     20.667363   23.615977   21.265664 C.3        1 MOL1         0.1018
      76    H36     20.550109   24.700818   21.387911 H          1 MOL1         0.0783
      77    C23     21.898714   23.315095   20.360926 C.3        1 MOL1         0.1043
      78    H37     21.847170   22.259627   20.062780 H          1 MOL1         0.0783
      79    O19     23.141068   23.540425   21.079736 O.3        1 MOL1        -0.3740
      80    C24     21.923668   24.155358   19.061993 C.3        1 MOL1         0.0138
      81    H38     21.115570   23.804355   18.405853 H          1 MOL1         0.0794
      82    H39     22.872282   23.967737   18.541369 H          1 MOL1         0.0794
      83    O20     21.764897   25.556128   19.320744 O.3        1 MOL1        -0.5486
      84    H40     21.863911   26.029979   18.466255 H          1 MOL1         0.3769
      85    C25     24.944833   17.663059   22.002091 C.3        1 MOL1         0.2972
      86    H41     25.654406   16.825791   22.026818 H          1 MOL1         0.0751
      87    O21     23.600028   17.204728   21.767730 O.3        1 MOL1        -0.3740
      88    C26     24.959680   18.402946   23.361258 C.3        1 MOL1         0.1003
      89    H42     25.977054   18.783561   23.520124 H          1 MOL1         0.0783
      90    O22     24.618772   17.502191   24.425636 O.3        1 MOL1        -0.5519
      91    H43     23.939230   16.887379   24.062833 H          1 MOL1         0.3769
      92    C27     23.992836   19.609996   23.347438 C.3        1 MOL1         0.1053
      93    H44     22.964226   19.229032   23.276944 H          1 MOL1         0.0783
      94    O23     24.157516   20.346119   24.561702 O.3        1 MOL1        -0.5519
      95    H45     24.180375   19.663626   25.269935 H          1 MOL1         0.3769
      96    C28     24.257799   20.525559   22.126270 C.3        1 MOL1         0.1018
      97    H46     25.187104   21.085467   22.292170 H          1 MOL1         0.0783
      98    C29     24.371819   19.718164   20.805512 C.3        1 MOL1         0.1043
      99    H47     23.378450   19.321511   20.580653 H          1 MOL1         0.0783
     100    O24     25.292271   18.607649   20.964461 O.3        1 MOL1        -0.3740
     101    C30     24.802356   20.565684   19.582558 C.3        1 MOL1         0.0138
     102    H48     23.940746   21.159608   19.249483 H          1 MOL1         0.0794
     103    H49     25.063217   19.886481   18.760047 H          1 MOL1         0.0794
     104    O25     25.902451   21.436329   19.869575 O.3        1 MOL1        -0.5486
     105    H50     25.537309   22.225505   20.325424 H          1 MOL1         0.3769
     106    C31     21.350312   14.125750   20.169600 C.3        1 MOL1         0.2972
     107    H51     20.952973   13.256077   19.630846 H          1 MOL1         0.0751
     108    O26     20.293440   14.928125   20.735126 O.3        1 MOL1        -0.3740
     109    C32     22.325122   13.691392   21.296024 C.3        1 MOL1         0.1003
     110    H52     23.165019   13.175337   20.812969 H          1 MOL1         0.0783
     111    O27     21.701772   12.791784   22.225337 O.3        1 MOL1        -0.5519
     112    H53     20.937835   13.274994   22.630592 H          1 MOL1         0.3769
     113    C33     22.890584   14.930084   22.032978 C.3        1 MOL1         0.1053
     114    H54     22.068077   15.399052   22.589374 H          1 MOL1         0.0783
     115    O28     23.911212   14.515310   22.946230 O.3        1 MOL1        -0.5519
     116    H55     23.525578   13.758202   23.439618 H          1 MOL1         0.3769
     117    C34     23.470431   15.970583   21.037688 C.3        1 MOL1         0.1018
     118    H56     24.439645   15.599000   20.680430 H          1 MOL1         0.0783
     119    C35     22.540810   16.232197   19.816020 C.3        1 MOL1         0.1043
     120    H57     21.665953   16.795489   20.161795 H          1 MOL1         0.0783
     121    O29     22.102019   14.965311   19.267213 O.3        1 MOL1        -0.3740
     122    C36     23.177325   17.063538   18.670692 C.3        1 MOL1         0.0138
     123    H58     22.939216   18.121287   18.832434 H          1 MOL1         0.0794
     124    H59     22.696148   16.778387   17.725578 H          1 MOL1         0.0794
     125    O30     24.596882   16.901017   18.564278 O.3        1 MOL1        -0.5486
     126    H60     25.002730   17.391055   19.317148 H          1 MOL1         0.3769
     127    C1      20.038632   17.672548   24.241116 C.2        1 MOL1         0.6173
     128    O1      20.395455   16.578756   24.638098 O.co2      1 MOL1        -0.6755
     129    O2      19.382761   18.449811   24.909583 O.co2      1 MOL1        -0.6755
     130    C2      20.343581   18.006073   22.825173 C.2        1 MOL1        -0.1504
     131    H1      20.892374   17.250961   22.274696 H          1 MOL1         0.0814
     132    C3      19.952804   19.139999   22.203846 C.2        1 MOL1        -0.1394
     133    H2      19.383836   19.903911   22.733729 H          1 MOL1         0.0817
     134    C4      20.229131   19.410070   20.742871 C.3        1 MOL1        -0.1849
     135    H3      21.260927   19.136406   20.507147 H          1 MOL1         0.0736
     136    H4      20.136861   20.481716   20.537852 H          1 MOL1         0.0736
     137    C5      19.269443   18.614292   19.836147 C.3        1 MOL1        -0.1866
     138    H5      19.354039   17.545673   20.068507 H          1 MOL1         0.0738
     139    H6      18.232707   18.901078   20.054260 H          1 MOL1         0.0738
     140    C6      19.571213   18.839488   18.341352 C.3        1 MOL1        -0.2879
     141    H7      19.517877   19.904527   18.083408 H          1 MOL1         0.0750
     142    H8      20.574509   18.478271   18.085807 H          1 MOL1         0.0750
     143    H9      18.848533   18.299385   17.716552 H          1 MOL1         0.0750
@<TRIPOS>BOND
    1     1     2    1
    2     1     3    1
    3     1     4    1
    4     4     5    1
    5     4     6    1
    6     6     7    1
    7     4     8    1
    8     8     9    1
    9     8    10    1
   10    10    11    1
   11     8    12    1
   12    12    13    1
   13    12    14    1
   14    14    15    1
   15     1    16    1
   16    14    16    1
   17    14    17    1
   18    17    18    1
   19    17    19    1
   20    17    20    1
   21    20    21    1
   22    22    23    1
   23    22    24    1
   24    22    25    1
   25    25    26    1
   26    25    27    1
   27    27    28    1
   28    25    29    1
   29    29    30    1
   30    29    31    1
   31    31    32    1
   32     3    33    1
   33    29    33    1
   34    33    34    1
   35    33    35    1
   36    35    36    1
   37    22    37    1
   38    35    37    1
   39    35    38    1
   40    38    39    1
   41    38    40    1
   42    38    41    1
   43    41    42    1
   44    43    44    1
   45    43    45    1
   46    43    46    1
   47    46    47    1
   48    46    48    1
   49    48    49    1
   50    46    50    1
   51    50    51    1
   52    50    52    1
   53    52    53    1
   54    24    54    1
   55    50    54    1
   56    54    55    1
   57    54    56    1
   58    56    57    1
   59    43    58    1
   60    56    58    1
   61    56    59    1
   62    59    60    1
   63    59    61    1
   64    59    62    1
   65    62    63    1
   66    64    65    1
   67    64    66    1
   68    64    67    1
   69    67    68    1
   70    67    69    1
   71    69    70    1
   72    67    71    1
   73    71    72    1
   74    71    73    1
   75    73    74    1
   76    45    75    1
   77    71    75    1
   78    75    76    1
   79    75    77    1
   80    77    78    1
   81    64    79    1
   82    77    79    1
   83    77    80    1
   84    80    81    1
   85    80    82    1
   86    80    83    1
   87    83    84    1
   88    85    86    1
   89    85    87    1
   90    85    88    1
   91    88    89    1
   92    88    90    1
   93    90    91    1
   94    88    92    1
   95    92    93    1
   96    92    94    1
   97    94    95    1
   98    66    96    1
   99    92    96    1
  100    96    97    1
  101    96    98    1
  102    98    99    1
  103    85   100    1
  104    98   100    1
  105    98   101    1
  106   101   102    1
  107   101   103    1
  108   101   104    1
  109   104   105    1
  110   106   107    1
  111    12   108    1
  112   106   108    1
  113   106   109    1
  114   109   110    1
  115   109   111    1
  116   111   112    1
  117   109   113    1
  118   113   114    1
  119   113   115    1
  120   115   116    1
  121    87   117    1
  122   113   117    1
  123   117   118    1
  124   117   119    1
  125   119   120    1
  126   106   121    1
  127   119   121    1
  128   119   122    1
  129   122   123    1
  130   122   124    1
  131   122   125    1
  132   125   126    1
  133   127   128    1
  134   127   129    2
  135   127   130    1
  136   130   131    1
  137   130   132    2
  138   132   133    1
  139   132   134    1
  140   134   135    1
  141   134   136    1
  142   134   137    1
  143   137   138    1
  144   137   139    1
  145   137   140    1
  146   140   141    1
  147   140   142    1
  148   140   143    1
@<TRIPOS>SUBSTRUCTURE
       1 MOL1            1 RESIDUE      1      MOL     
       2 MOL1          143 RESIDUE      1      MOL     
@<SCITEGIC>MOL_PROPERTY
feprocess Rank
SciTegic.value.IntegerValue
6

@<SCITEGIC>MOL_PROPERTY
Conf_Id
SciTegic.value.IntegerValue
405

@<SCITEGIC>MOL_PROPERTY
Probability
SciTegic.value.DoubleValue
1.15

@<SCITEGIC>MOL_PROPERTY
G
SciTegic.value.DoubleValue
497.274

@<SCITEGIC>MOL_PROPERTY
E
SciTegic.value.DoubleValue
314.306

@<SCITEGIC>MOL_PROPERTY
-TS
SciTegic.value.DoubleValue
182.967

@<SCITEGIC>MOL_PROPERTY
U+W
SciTegic.value.DoubleValue
188.218

@<SCITEGIC>MOL_PROPERTY
U
SciTegic.value.DoubleValue
268.402

@<SCITEGIC>MOL_PROPERTY
W
SciTegic.value.DoubleValue
-80.184

@<SCITEGIC>MOL_PROPERTY
W(PB)
SciTegic.value.DoubleValue
-86.168

@<SCITEGIC>MOL_PROPERTY
W(SA)
SciTegic.value.DoubleValue
5.984

@<SCITEGIC>MOL_PROPERTY
Valence
SciTegic.value.DoubleValue
148.514

@<SCITEGIC>MOL_PROPERTY
Coulomb
SciTegic.value.DoubleValue
144.322

@<SCITEGIC>MOL_PROPERTY
VdW
SciTegic.value.DoubleValue
-24.434

@<SCITEGIC>MOL_PROPERTY
VdW6
SciTegic.value.DoubleValue
-183.850

@<SCITEGIC>MOL_PROPERTY
VdW12
SciTegic.value.DoubleValue
159.416

@<SCITEGIC>MOL_PROPERTY
Bond
SciTegic.value.DoubleValue
5.101

@<SCITEGIC>MOL_PROPERTY
Angle
SciTegic.value.DoubleValue
14.995

@<SCITEGIC>MOL_PROPERTY
Pdih
SciTegic.value.DoubleValue
128.396

@<SCITEGIC>MOL_PROPERTY
Idih
SciTegic.value.DoubleValue
0.021

@<SCITEGIC>MOL_PROPERTY
Tether
SciTegic.value.DoubleValue
0.000

@<TRIPOS>MOLECULE
CD_guest-s19_fast_vm2_rndm.mol2 : feprocess host+ligand conformer 7
         143         148           2
SMALL
USER_CHARGES
 
@<TRIPOS>ATOM
       1    C1      16.337029   15.201043   20.578951 C.3        1 MOL1         0.2972
       2    H1      15.304568   15.071722   20.230115 H          1 MOL1         0.0751
       3    O1      16.636008   16.592142   20.826150 O.3        1 MOL1        -0.3740
       4    C2      16.606958   14.360455   21.859380 C.3        1 MOL1         0.1003
       5    H2      16.461596   13.307286   21.585902 H          1 MOL1         0.0783
       6    O2      15.703467   14.685379   22.925803 O.3        1 MOL1        -0.5519
       7    H3      15.891071   15.623811   23.181468 H          1 MOL1         0.3769
       8    C3      18.074860   14.529982   22.320653 C.3        1 MOL1         0.1053
       9    H4      18.218729   15.572852   22.635261 H          1 MOL1         0.0783
      10    O3      18.342962   13.651572   23.419182 O.3        1 MOL1        -0.5519
      11    H5      17.568475   13.743722   24.017487 H          1 MOL1         0.3769
      12    C4      19.054226   14.231289   21.159444 C.3        1 MOL1         0.1018
      13    H6      19.056278   13.149171   20.974261 H          1 MOL1         0.0783
      14    C5      18.664215   14.975190   19.851894 C.3        1 MOL1         0.1043
      15    H7      18.819923   16.047459   20.009910 H          1 MOL1         0.0783
      16    O4      17.262089   14.734866   19.568937 O.3        1 MOL1        -0.3740
      17    C6      19.504516   14.591767   18.605822 C.3        1 MOL1         0.0138
      18    H8      20.360958   15.274821   18.542995 H          1 MOL1         0.0794
      19    H9      18.896466   14.765182   17.707979 H          1 MOL1         0.0794
      20    O5      19.974611   13.238610   18.628373 O.3        1 MOL1        -0.5486
      21    H10     20.739136   13.211623   19.249557 H          1 MOL1         0.3769
      22    C7      14.953082   20.306394   21.618044 C.3        1 MOL1         0.2972
      23    H11     14.289699   21.141017   21.878317 H          1 MOL1         0.0751
      24    O6      16.192782   20.772283   21.048790 O.3        1 MOL1        -0.3740
      25    C8      15.255355   19.442967   22.871234 C.3        1 MOL1         0.1003
      26    H12     14.294213   19.053398   23.231258 H          1 MOL1         0.0783
      27    O7      15.869864   20.209474   23.918923 O.3        1 MOL1        -0.5519
      28    H13     15.742864   21.163355   23.698189 H          1 MOL1         0.3769
      29    C9      16.153246   18.238846   22.507984 C.3        1 MOL1         0.1053
      30    H14     17.134268   18.628638   22.208498 H          1 MOL1         0.0783
      31    O8      16.293672   17.405798   23.662939 O.3        1 MOL1        -0.5519
      32    H15     16.513512   18.033018   24.388518 H          1 MOL1         0.3769
      33    C10     15.571152   17.430187   21.320939 C.3        1 MOL1         0.1018
      34    H16     14.715914   16.842041   21.678553 H          1 MOL1         0.0783
      35    C11     15.125009   18.349938   20.148686 C.3        1 MOL1         0.1043
      36    H17     16.026952   18.755768   19.672557 H          1 MOL1         0.0783
      37    O9      14.317576   19.448555   20.646164 O.3        1 MOL1        -0.3740
      38    C12     14.323054   17.608347   19.052651 C.3        1 MOL1         0.0138
      39    H18     15.010574   16.949301   18.505342 H          1 MOL1         0.0794
      40    H19     13.941983   18.348762   18.336641 H          1 MOL1         0.0794
      41    O10     13.243137   16.839169   19.597337 O.3        1 MOL1        -0.5486
      42    H20     12.734199   16.465809   18.844937 H          1 MOL1         0.3769
      43    C13     18.496393   24.186165   20.811200 C.3        1 MOL1         0.2972
      44    H21     18.950805   25.168433   20.628131 H          1 MOL1         0.0751
      45    O11     19.476447   23.208390   21.218509 O.3        1 MOL1        -0.3740
      46    C14     17.391257   24.266937   21.893664 C.3        1 MOL1         0.1003
      47    H22     16.592438   24.903725   21.491480 H          1 MOL1         0.0783
      48    O12     17.876385   24.851546   23.111075 O.3        1 MOL1        -0.5519
      49    H23     18.645121   24.304003   23.413690 H          1 MOL1         0.3769
      50    C15     16.791051   22.863190   22.156634 C.3        1 MOL1         0.1053
      51    H24     17.572512   22.233258   22.605631 H          1 MOL1         0.0783
      52    O13     15.693062   22.999840   23.065709 O.3        1 MOL1        -0.5519
      53    H25     15.994241   23.665009   23.726271 H          1 MOL1         0.3769
      54    C16     16.323633   22.192197   20.832813 C.3        1 MOL1         0.1018
      55    H26     15.369072   22.637550   20.525833 H          1 MOL1         0.0783
      56    C17     17.351947   22.349241   19.674898 C.3        1 MOL1         0.1043
      57    H27     18.194217   21.677377   19.870696 H          1 MOL1         0.0783
      58    O14     17.854385   23.706321   19.611249 O.3        1 MOL1        -0.3740
      59    C18     16.787854   21.956122   18.287510 C.3        1 MOL1         0.0138
      60    H28     16.651384   20.866495   18.262737 H          1 MOL1         0.0794
      61    H29     17.537466   22.205733   17.525025 H          1 MOL1         0.0794
      62    O15     15.546576   22.606581   17.987731 O.3        1 MOL1        -0.5486
      63    H30     14.847482   22.168134   18.518345 H          1 MOL1         0.3769
      64    C19     23.418688   22.631346   22.296481 C.3        1 MOL1         0.2972
      65    H31     24.469863   22.713190   22.601878 H          1 MOL1         0.0751
      66    O16     23.081443   21.276073   21.936396 O.3        1 MOL1        -0.3740
      67    C20     22.498082   23.107097   23.447371 C.3        1 MOL1         0.1003
      68    H32     22.675654   24.182918   23.572974 H          1 MOL1         0.0783
      69    O17     22.826160   22.456794   24.684683 O.3        1 MOL1        -0.5519
      70    H33     22.530826   21.508833   24.636876 H          1 MOL1         0.3769
      71    C21     21.014917   22.925527   23.041406 C.3        1 MOL1         0.1053
      72    H34     20.834304   21.863800   22.837035 H          1 MOL1         0.0783
      73    O18     20.143264   23.369411   24.088442 O.3        1 MOL1        -0.5519
      74    H35     20.159064   22.649280   24.773775 H          1 MOL1         0.3769
      75    C22     20.728289   23.703306   21.732662 C.3        1 MOL1         0.1018
      76    H36     20.689544   24.777271   21.958388 H          1 MOL1         0.0783
      77    C23     21.789953   23.416276   20.631227 C.3        1 MOL1         0.1043
      78    H37     21.598136   22.401991   20.265614 H          1 MOL1         0.0783
      79    O19     23.145667   23.474503   21.154473 O.3        1 MOL1        -0.3740
      80    C24     21.688390   24.369207   19.416544 C.3        1 MOL1         0.0138
      81    H38     20.764592   24.138191   18.868770 H          1 MOL1         0.0794
      82    H39     22.528358   24.167598   18.738278 H          1 MOL1         0.0794
      83    O20     21.686585   25.746055   19.813431 O.3        1 MOL1        -0.5486
      84    H40     21.692526   26.291589   18.996813 H          1 MOL1         0.3769
      85    C25     24.838647   17.665915   20.848921 C.3        1 MOL1         0.2972
      86    H41     25.476092   16.875073   20.433034 H          1 MOL1         0.0751
      87    O21     23.597980   17.137589   21.351130 O.3        1 MOL1        -0.3740
      88    C26     25.557102   18.407878   22.004824 C.3        1 MOL1         0.1003
      89    H42     26.483976   18.824597   21.589807 H          1 MOL1         0.0783
      90    O22     25.888104   17.504477   23.072242 O.3        1 MOL1        -0.5519
      91    H43     25.053428   17.037902   23.332433 H          1 MOL1         0.3769
      92    C27     24.708066   19.589982   22.541703 C.3        1 MOL1         0.1053
      93    H44     23.853555   19.179058   23.096965 H          1 MOL1         0.0783
      94    O23     25.526461   20.373934   23.416060 O.3        1 MOL1        -0.5519
      95    H45     25.879087   19.741482   24.078977 H          1 MOL1         0.3769
      96    C28     24.157509   20.483134   21.396035 C.3        1 MOL1         0.1018
      97    H46     24.976482   21.111330   21.022424 H          1 MOL1         0.0783
      98    C29     23.573881   19.657109   20.214960 C.3        1 MOL1         0.1043
      99    H47     22.646124   19.178885   20.553193 H          1 MOL1         0.0783
     100    O24     24.527515   18.638703   19.830105 O.3        1 MOL1        -0.3740
     101    C30     23.218343   20.486626   18.952753 C.3        1 MOL1         0.0138
     102    H48     22.167860   20.792369   19.020197 H          1 MOL1         0.0794
     103    H49     23.293129   19.833243   18.073286 H          1 MOL1         0.0794
     104    O25     24.050472   21.641217   18.776612 O.3        1 MOL1        -0.5486
     105    H50     23.879863   22.246844   19.534536 H          1 MOL1         0.3769
     106    C31     21.370771   13.722822   21.749305 C.3        1 MOL1         0.2972
     107    H51     20.952596   12.713675   21.856158 H          1 MOL1         0.0751
     108    O26     20.341174   14.714330   21.577974 O.3        1 MOL1        -0.3740
     109    C32     22.178551   14.094996   23.013938 C.3        1 MOL1         0.1003
     110    H52     23.016773   13.390865   23.095471 H          1 MOL1         0.0783
     111    O27     21.350471   13.990127   24.183282 O.3        1 MOL1        -0.5519
     112    H53     20.420677   14.156677   23.890733 H          1 MOL1         0.3769
     113    C33     22.758559   15.521923   22.884140 C.3        1 MOL1         0.1053
     114    H54     21.918145   16.227968   22.902717 H          1 MOL1         0.0783
     115    O28     23.633506   15.785226   23.986308 O.3        1 MOL1        -0.5519
     116    H55     23.119515   15.530534   24.784464 H          1 MOL1         0.3769
     117    C34     23.526058   15.714010   21.551785 C.3        1 MOL1         0.1018
     118    H56     24.521308   15.261802   21.656018 H          1 MOL1         0.0783
     119    C35     22.786822   15.114744   20.318184 C.3        1 MOL1         0.1043
     120    H57     21.953422   15.784401   20.074199 H          1 MOL1         0.0783
     121    O29     22.257420   13.795835   20.614445 O.3        1 MOL1        -0.3740
     122    C36     23.668454   15.012881   19.050716 C.3        1 MOL1         0.0138
     123    H58     23.847043   16.026481   18.667067 H          1 MOL1         0.0794
     124    H59     23.109878   14.466952   18.278528 H          1 MOL1         0.0794
     125    O30     24.918838   14.364165   19.313190 O.3        1 MOL1        -0.5486
     126    H60     25.387095   14.261171   18.456091 H          1 MOL1         0.3769
     127    C1      20.585133   20.068436   24.810630 C.2        1 MOL1         0.6173
     128    O1      19.927655   20.849872   25.470617 O.co2      1 MOL1        -0.6755
     129    O2      21.773395   19.885542   24.997837 O.co2      1 MOL1        -0.6755
     130    C2      19.941892   19.471985   23.610616 C.2        1 MOL1        -0.1504
     131    H1      18.888238   19.699929   23.469457 H          1 MOL1         0.0814
     132    C3      20.618145   18.734520   22.701882 C.2        1 MOL1        -0.1394
     133    H2      21.678348   18.530480   22.836294 H          1 MOL1         0.0817
     134    C4      20.010445   18.182837   21.434509 C.3        1 MOL1        -0.1849
     135    H3      19.149337   17.550930   21.680280 H          1 MOL1         0.0736
     136    H4      20.743287   17.541172   20.931693 H          1 MOL1         0.0736
     137    C5      19.579032   19.318490   20.486785 C.3        1 MOL1        -0.1866
     138    H5      18.745759   19.863159   20.945835 H          1 MOL1         0.0738
     139    H6      20.399888   20.038009   20.376236 H          1 MOL1         0.0738
     140    C6      19.161185   18.795828   19.098131 C.3        1 MOL1        -0.2879
     141    H7      19.979010   18.234939   18.628023 H          1 MOL1         0.0750
     142    H8      18.289171   18.135311   19.174138 H          1 MOL1         0.0750
     143    H9      18.897889   19.628707   18.434913 H          1 MOL1         0.0750
@<TRIPOS>BOND
    1     1     2    1
    2     1     3    1
    3     1     4    1
    4     4     5    1
    5     4     6    1
    6     6     7    1
    7     4     8    1
    8     8     9    1
    9     8    10    1
   10    10    11    1
   11     8    12    1
   12    12    13    1
   13    12    14    1
   14    14    15    1
   15     1    16    1
   16    14    16    1
   17    14    17    1
   18    17    18    1
   19    17    19    1
   20    17    20    1
   21    20    21    1
   22    22    23    1
   23    22    24    1
   24    22    25    1
   25    25    26    1
   26    25    27    1
   27    27    28    1
   28    25    29    1
   29    29    30    1
   30    29    31    1
   31    31    32    1
   32     3    33    1
   33    29    33    1
   34    33    34    1
   35    33    35    1
   36    35    36    1
   37    22    37    1
   38    35    37    1
   39    35    38    1
   40    38    39    1
   41    38    40    1
   42    38    41    1
   43    41    42    1
   44    43    44    1
   45    43    45    1
   46    43    46    1
   47    46    47    1
   48    46    48    1
   49    48    49    1
   50    46    50    1
   51    50    51    1
   52    50    52    1
   53    52    53    1
   54    24    54    1
   55    50    54    1
   56    54    55    1
   57    54    56    1
   58    56    57    1
   59    43    58    1
   60    56    58    1
   61    56    59    1
   62    59    60    1
   63    59    61    1
   64    59    62    1
   65    62    63    1
   66    64    65    1
   67    64    66    1
   68    64    67    1
   69    67    68    1
   70    67    69    1
   71    69    70    1
   72    67    71    1
   73    71    72    1
   74    71    73    1
   75    73    74    1
   76    45    75    1
   77    71    75    1
   78    75    76    1
   79    75    77    1
   80    77    78    1
   81    64    79    1
   82    77    79    1
   83    77    80    1
   84    80    81    1
   85    80    82    1
   86    80    83    1
   87    83    84    1
   88    85    86    1
   89    85    87    1
   90    85    88    1
   91    88    89    1
   92    88    90    1
   93    90    91    1
   94    88    92    1
   95    92    93    1
   96    92    94    1
   97    94    95    1
   98    66    96    1
   99    92    96    1
  100    96    97    1
  101    96    98    1
  102    98    99    1
  103    85   100    1
  104    98   100    1
  105    98   101    1
  106   101   102    1
  107   101   103    1
  108   101   104    1
  109   104   105    1
  110   106   107    1
  111    12   108    1
  112   106   108    1
  113   106   109    1
  114   109   110    1
  115   109   111    1
  116   111   112    1
  117   109   113    1
  118   113   114    1
  119   113   115    1
  120   115   116    1
  121    87   117    1
  122   113   117    1
  123   117   118    1
  124   117   119    1
  125   119   120    1
  126   106   121    1
  127   119   121    1
  128   119   122    1
  129   122   123    1
  130   122   124    1
  131   122   125    1
  132   125   126    1
  133   127   128    1
  134   127   129    2
  135   127   130    1
  136   130   131    1
  137   130   132    2
  138   132   133    1
  139   132   134    1
  140   134   135    1
  141   134   136    1
  142   134   137    1
  143   137   138    1
  144   137   139    1
  145   137   140    1
  146   140   141    1
  147   140   142    1
  148   140   143    1
@<TRIPOS>SUBSTRUCTURE
       1 MOL1            1 RESIDUE      1      MOL     
       2 MOL1          143 RESIDUE      1      MOL     
@<SCITEGIC>MOL_PROPERTY
feprocess Rank
SciTegic.value.IntegerValue
7

@<SCITEGIC>MOL_PROPERTY
Conf_Id
SciTegic.value.IntegerValue
917

@<SCITEGIC>MOL_PROPERTY
Probability
SciTegic.value.DoubleValue
0.99

@<SCITEGIC>MOL_PROPERTY
G
SciTegic.value.DoubleValue
497.361

@<SCITEGIC>MOL_PROPERTY
E
SciTegic.value.DoubleValue
313.206

@<SCITEGIC>MOL_PROPERTY
-TS
SciTegic.value.DoubleValue
184.155

@<SCITEGIC>MOL_PROPERTY
U+W
SciTegic.value.DoubleValue
187.118

@<SCITEGIC>MOL_PROPERTY
U
SciTegic.value.DoubleValue
266.799

@<SCITEGIC>MOL_PROPERTY
W
SciTegic.value.DoubleValue
-79.681

@<SCITEGIC>MOL_PROPERTY
W(PB)
SciTegic.value.DoubleValue
-85.660

@<SCITEGIC>MOL_PROPERTY
W(SA)
SciTegic.value.DoubleValue
5.980

@<SCITEGIC>MOL_PROPERTY
Valence
SciTegic.value.DoubleValue
148.069

@<SCITEGIC>MOL_PROPERTY
Coulomb
SciTegic.value.DoubleValue
143.768

@<SCITEGIC>MOL_PROPERTY
VdW
SciTegic.value.DoubleValue
-25.038

@<SCITEGIC>MOL_PROPERTY
VdW6
SciTegic.value.DoubleValue
-183.280

@<SCITEGIC>MOL_PROPERTY
VdW12
SciTegic.value.DoubleValue
158.242

@<SCITEGIC>MOL_PROPERTY
Bond
SciTegic.value.DoubleValue
4.994

@<SCITEGIC>MOL_PROPERTY
Angle
SciTegic.value.DoubleValue
14.729

@<SCITEGIC>MOL_PROPERTY
Pdih
SciTegic.value.DoubleValue
128.284

@<SCITEGIC>MOL_PROPERTY
Idih
SciTegic.value.DoubleValue
0.062

@<SCITEGIC>MOL_PROPERTY
Tether
SciTegic.value.DoubleValue
0.000

@<TRIPOS>MOLECULE
CD_guest-s19_fast_vm2_rndm.mol2 : feprocess host+ligand conformer 8
         143         148           2
SMALL
USER_CHARGES
 
@<TRIPOS>ATOM
       1    C1      16.166721   15.188058   20.745538 C.3        1 MOL1         0.2972
       2    H1      15.142358   15.001981   20.397800 H          1 MOL1         0.0751
       3    O1      16.342012   16.540219   21.206678 O.3        1 MOL1        -0.3740
       4    C2      16.538409   14.250545   21.922883 C.3        1 MOL1         0.1003
       5    H2      16.475748   13.218261   21.554810 H          1 MOL1         0.0783
       6    O2      15.629008   14.415165   23.023008 O.3        1 MOL1        -0.5519
       7    H3      15.538411   15.387676   23.190311 H          1 MOL1         0.3769
       8    C3      17.995986   14.509128   22.381385 C.3        1 MOL1         0.1053
       9    H4      18.045693   15.516200   22.818003 H          1 MOL1         0.0783
      10    O3      18.366106   13.539105   23.365573 O.3        1 MOL1        -0.5519
      11    H5      17.603776   13.497307   23.984709 H          1 MOL1         0.3769
      12    C4      18.975771   14.450262   21.181301 C.3        1 MOL1         0.1018
      13    H6      19.075305   13.403853   20.864063 H          1 MOL1         0.0783
      14    C5      18.487233   15.299175   19.973955 C.3        1 MOL1         0.1043
      15    H7      18.537951   16.359982   20.247582 H          1 MOL1         0.0783
      16    O4      17.112388   14.951110   19.677894 O.3        1 MOL1        -0.3740
      17    C6      19.333003   15.134448   18.683850 C.3        1 MOL1         0.0138
      18    H8      20.126963   15.891332   18.691661 H          1 MOL1         0.0794
      19    H9      18.695983   15.356832   17.817444 H          1 MOL1         0.0794
      20    O5      19.913500   13.831172   18.544839 O.3        1 MOL1        -0.5486
      21    H10     20.617433   13.749760   19.230114 H          1 MOL1         0.3769
      22    C7      14.684519   20.264505   21.472964 C.3        1 MOL1         0.2972
      23    H11     14.063744   21.168613   21.522056 H          1 MOL1         0.0751
      24    O6      16.089518   20.584610   21.455087 O.3        1 MOL1        -0.3740
      25    C8      14.407656   19.371443   22.704347 C.3        1 MOL1         0.1003
      26    H12     13.354622   19.063760   22.664867 H          1 MOL1         0.0783
      27    O7      14.647033   20.103761   23.916756 O.3        1 MOL1        -0.5519
      28    H13     15.246798   20.853110   23.681393 H          1 MOL1         0.3769
      29    C9      15.284022   18.100217   22.656615 C.3        1 MOL1         0.1053
      30    H14     16.326440   18.411598   22.790176 H          1 MOL1         0.0783
      31    O8      14.910725   17.218049   23.719815 O.3        1 MOL1        -0.5519
      32    H15     14.852228   17.793356   24.515094 H          1 MOL1         0.3769
      33    C10     15.169046   17.367452   21.296198 C.3        1 MOL1         0.1018
      34    H16     14.241905   16.779262   21.290818 H          1 MOL1         0.0783
      35    C11     15.213269   18.326376   20.071999 C.3        1 MOL1         0.1043
      36    H17     16.254919   18.645607   19.948673 H          1 MOL1         0.0783
      37    O9      14.384954   19.498600   20.288094 O.3        1 MOL1        -0.3740
      38    C12     14.781831   17.657068   18.745433 C.3        1 MOL1         0.0138
      39    H18     15.556439   16.936706   18.449744 H          1 MOL1         0.0794
      40    H19     14.736537   18.425904   17.962349 H          1 MOL1         0.0794
      41    O10     13.518660   16.991059   18.864225 O.3        1 MOL1        -0.5486
      42    H20     13.277557   16.648899   17.975776 H          1 MOL1         0.3769
      43    C13     18.609744   23.856951   20.788418 C.3        1 MOL1         0.2972
      44    H21     19.027714   24.815307   20.454120 H          1 MOL1         0.0751
      45    O11     19.620155   23.006502   21.359934 O.3        1 MOL1        -0.3740
      46    C14     17.496193   24.067728   21.850423 C.3        1 MOL1         0.1003
      47    H22     16.708047   24.669685   21.379818 H          1 MOL1         0.0783
      48    O12     17.992678   24.767951   23.001698 O.3        1 MOL1        -0.5519
      49    H23     18.785493   24.271824   23.329873 H          1 MOL1         0.3769
      50    C15     16.873830   22.710899   22.267488 C.3        1 MOL1         0.1053
      51    H24     17.642554   22.122843   22.788377 H          1 MOL1         0.0783
      52    O13     15.761437   22.937361   23.139807 O.3        1 MOL1        -0.5519
      53    H25     16.070788   23.619114   23.777211 H          1 MOL1         0.3769
      54    C16     16.417249   21.915387   21.020069 C.3        1 MOL1         0.1018
      55    H26     15.553505   22.425567   20.573456 H          1 MOL1         0.0783
      56    C17     17.545191   21.813092   19.958366 C.3        1 MOL1         0.1043
      57    H27     18.360237   21.208568   20.376215 H          1 MOL1         0.0783
      58    O14     18.029054   23.148747   19.669696 O.3        1 MOL1        -0.3740
      59    C18     17.124122   21.141087   18.625296 C.3        1 MOL1         0.0138
      60    H28     17.318368   20.064421   18.703139 H          1 MOL1         0.0794
      61    H29     17.772685   21.519189   17.823855 H          1 MOL1         0.0794
      62    O15     15.748334   21.359775   18.287425 O.3        1 MOL1        -0.5486
      63    H30     15.204777   20.831772   18.917878 H          1 MOL1         0.3769
      64    C19     23.617945   22.682499   22.297936 C.3        1 MOL1         0.2972
      65    H31     24.673195   22.842114   22.554617 H          1 MOL1         0.0751
      66    O16     23.347976   21.282249   22.071884 O.3        1 MOL1        -0.3740
      67    C20     22.720901   23.216159   23.443088 C.3        1 MOL1         0.1003
      68    H32     22.894164   24.298767   23.499894 H          1 MOL1         0.0783
      69    O17     23.058653   22.641662   24.717283 O.3        1 MOL1        -0.5519
      70    H33     23.148897   21.657859   24.628675 H          1 MOL1         0.3769
      71    C21     21.226754   23.010995   23.111504 C.3        1 MOL1         0.1053
      72    H34     21.028719   21.936458   23.048344 H          1 MOL1         0.0783
      73    O18     20.424799   23.599826   24.140256 O.3        1 MOL1        -0.5519
      74    H35     20.860559   23.335345   24.981466 H          1 MOL1         0.3769
      75    C22     20.865864   23.620880   21.738870 C.3        1 MOL1         0.1018
      76    H36     20.781567   24.711013   21.841319 H          1 MOL1         0.0783
      77    C23     21.897566   23.248145   20.638057 C.3        1 MOL1         0.1043
      78    H37     21.731673   22.191018   20.400757 H          1 MOL1         0.0783
      79    O19     23.264758   23.415641   21.103946 O.3        1 MOL1        -0.3740
      80    C24     21.720676   24.054453   19.328811 C.3        1 MOL1         0.0138
      81    H38     20.795459   23.724011   18.837538 H          1 MOL1         0.0794
      82    H39     22.551534   23.816284   18.651411 H          1 MOL1         0.0794
      83    O20     21.665470   25.465539   19.570493 O.3        1 MOL1        -0.5486
      84    H40     21.632539   25.916542   18.698724 H          1 MOL1         0.3769
      85    C25     24.985885   17.752747   20.657398 C.3        1 MOL1         0.2972
      86    H41     25.562000   16.939360   20.197838 H          1 MOL1         0.0751
      87    O21     23.666223   17.314202   21.050693 O.3        1 MOL1        -0.3740
      88    C26     25.733127   18.358935   21.872263 C.3        1 MOL1         0.1003
      89    H42     26.642822   18.836996   21.486815 H          1 MOL1         0.0783
      90    O22     26.119163   17.340821   22.806608 O.3        1 MOL1        -0.5519
      91    H43     25.288261   17.001192   23.222212 H          1 MOL1         0.3769
      92    C27     24.860294   19.465744   22.521770 C.3        1 MOL1         0.1053
      93    H44     23.953656   18.992304   22.921786 H          1 MOL1         0.0783
      94    O23     25.574419   20.113979   23.581184 O.3        1 MOL1        -0.5519
      95    H45     24.973129   20.072197   24.370771 H          1 MOL1         0.3769
      96    C28     24.428694   20.528226   21.471886 C.3        1 MOL1         0.1018
      97    H46     25.301101   21.162154   21.267453 H          1 MOL1         0.0783
      98    C29     23.930915   19.899809   20.129029 C.3        1 MOL1         0.1043
      99    H47     22.931020   19.482643   20.294882 H          1 MOL1         0.0783
     100    O24     24.822672   18.833081   19.718084 O.3        1 MOL1        -0.3740
     101    C30     23.817574   20.876468   18.927870 C.3        1 MOL1         0.0138
     102    H48     22.790377   21.251386   18.869374 H          1 MOL1         0.0794
     103    H49     23.984827   20.307908   18.003178 H          1 MOL1         0.0794
     104    O25     24.737601   21.972645   18.990619 O.3        1 MOL1        -0.5486
     105    H50     24.413547   22.583471   19.693890 H          1 MOL1         0.3769
     106    C31     21.278057   14.040566   21.861016 C.3        1 MOL1         0.2972
     107    H51     20.867186   13.045736   22.077361 H          1 MOL1         0.0751
     108    O26     20.230107   14.998872   21.625158 O.3        1 MOL1        -0.3740
     109    C32     22.116976   14.528602   23.065743 C.3        1 MOL1         0.1003
     110    H52     22.924553   13.801906   23.221870 H          1 MOL1         0.0783
     111    O27     21.290280   14.574787   24.238919 O.3        1 MOL1        -0.5519
     112    H53     20.368037   14.715648   23.923708 H          1 MOL1         0.3769
     113    C33     22.768340   15.905841   22.783752 C.3        1 MOL1         0.1053
     114    H54     21.977749   16.668759   22.765732 H          1 MOL1         0.0783
     115    O28     23.717292   16.199974   23.813871 O.3        1 MOL1        -0.5519
     116    H55     23.212367   16.558641   24.592744 H          1 MOL1         0.3769
     117    C34     23.498384   15.928476   21.413927 C.3        1 MOL1         0.1018
     118    H56     24.460930   15.409718   21.515811 H          1 MOL1         0.0783
     119    C35     22.664940   15.281537   20.274037 C.3        1 MOL1         0.1043
     120    H57     21.840106   15.967165   20.044974 H          1 MOL1         0.0783
     121    O29     22.120111   14.003523   20.690582 O.3        1 MOL1        -0.3740
     122    C36     23.464967   15.072909   18.965873 C.3        1 MOL1         0.0138
     123    H58     23.669299   16.057006   18.522648 H          1 MOL1         0.0794
     124    H59     22.837888   14.518894   18.254448 H          1 MOL1         0.0794
     125    O30     24.697262   14.377205   19.191533 O.3        1 MOL1        -0.5486
     126    H60     25.112574   14.214909   18.316578 H          1 MOL1         0.3769
     127    C1      22.607549   19.013370   25.382929 C.2        1 MOL1         0.6173
     128    O1      23.458849   19.882659   25.434581 O.co2      1 MOL1        -0.6755
     129    O2      22.765934   17.883787   25.805993 O.co2      1 MOL1        -0.6755
     130    C2      21.348020   19.361701   24.681712 C.2        1 MOL1        -0.1504
     131    H1      21.269219   20.391477   24.364737 H          1 MOL1         0.0814
     132    C3      20.350385   18.494895   24.402992 C.2        1 MOL1        -0.1394
     133    H2      20.413345   17.448998   24.701792 H          1 MOL1         0.0817
     134    C4      19.109266   18.893941   23.631759 C.3        1 MOL1        -0.1849
     135    H3      18.932139   19.974496   23.718056 H          1 MOL1         0.0736
     136    H4      18.236828   18.401851   24.079981 H          1 MOL1         0.0736
     137    C5      19.202472   18.503953   22.140289 C.3        1 MOL1        -0.1866
     138    H5      19.336917   17.419881   22.067404 H          1 MOL1         0.0738
     139    H6      18.256085   18.743074   21.639603 H          1 MOL1         0.0738
     140    C6      20.354562   19.211015   21.397690 C.3        1 MOL1        -0.2879
     141    H7      21.324153   18.925801   21.824431 H          1 MOL1         0.0750
     142    H8      20.358218   18.935335   20.335993 H          1 MOL1         0.0750
     143    H9      20.258599   20.300447   21.470488 H          1 MOL1         0.0750
@<TRIPOS>BOND
    1     1     2    1
    2     1     3    1
    3     1     4    1
    4     4     5    1
    5     4     6    1
    6     6     7    1
    7     4     8    1
    8     8     9    1
    9     8    10    1
   10    10    11    1
   11     8    12    1
   12    12    13    1
   13    12    14    1
   14    14    15    1
   15     1    16    1
   16    14    16    1
   17    14    17    1
   18    17    18    1
   19    17    19    1
   20    17    20    1
   21    20    21    1
   22    22    23    1
   23    22    24    1
   24    22    25    1
   25    25    26    1
   26    25    27    1
   27    27    28    1
   28    25    29    1
   29    29    30    1
   30    29    31    1
   31    31    32    1
   32     3    33    1
   33    29    33    1
   34    33    34    1
   35    33    35    1
   36    35    36    1
   37    22    37    1
   38    35    37    1
   39    35    38    1
   40    38    39    1
   41    38    40    1
   42    38    41    1
   43    41    42    1
   44    43    44    1
   45    43    45    1
   46    43    46    1
   47    46    47    1
   48    46    48    1
   49    48    49    1
   50    46    50    1
   51    50    51    1
   52    50    52    1
   53    52    53    1
   54    24    54    1
   55    50    54    1
   56    54    55    1
   57    54    56    1
   58    56    57    1
   59    43    58    1
   60    56    58    1
   61    56    59    1
   62    59    60    1
   63    59    61    1
   64    59    62    1
   65    62    63    1
   66    64    65    1
   67    64    66    1
   68    64    67    1
   69    67    68    1
   70    67    69    1
   71    69    70    1
   72    67    71    1
   73    71    72    1
   74    71    73    1
   75    73    74    1
   76    45    75    1
   77    71    75    1
   78    75    76    1
   79    75    77    1
   80    77    78    1
   81    64    79    1
   82    77    79    1
   83    77    80    1
   84    80    81    1
   85    80    82    1
   86    80    83    1
   87    83    84    1
   88    85    86    1
   89    85    87    1
   90    85    88    1
   91    88    89    1
   92    88    90    1
   93    90    91    1
   94    88    92    1
   95    92    93    1
   96    92    94    1
   97    94    95    1
   98    66    96    1
   99    92    96    1
  100    96    97    1
  101    96    98    1
  102    98    99    1
  103    85   100    1
  104    98   100    1
  105    98   101    1
  106   101   102    1
  107   101   103    1
  108   101   104    1
  109   104   105    1
  110   106   107    1
  111    12   108    1
  112   106   108    1
  113   106   109    1
  114   109   110    1
  115   109   111    1
  116   111   112    1
  117   109   113    1
  118   113   114    1
  119   113   115    1
  120   115   116    1
  121    87   117    1
  122   113   117    1
  123   117   118    1
  124   117   119    1
  125   119   120    1
  126   106   121    1
  127   119   121    1
  128   119   122    1
  129   122   123    1
  130   122   124    1
  131   122   125    1
  132   125   126    1
  133   127   128    1
  134   127   129    2
  135   127   130    1
  136   130   131    1
  137   130   132    2
  138   132   133    1
  139   132   134    1
  140   134   135    1
  141   134   136    1
  142   134   137    1
  143   137   138    1
  144   137   139    1
  145   137   140    1
  146   140   141    1
  147   140   142    1
  148   140   143    1
@<TRIPOS>SUBSTRUCTURE
       1 MOL1            1 RESIDUE      1      MOL     
       2 MOL1          143 RESIDUE      1      MOL     
@<SCITEGIC>MOL_PROPERTY
feprocess Rank
SciTegic.value.IntegerValue
8

@<SCITEGIC>MOL_PROPERTY
Conf_Id
SciTegic.value.IntegerValue
448

@<SCITEGIC>MOL_PROPERTY
Probability
SciTegic.value.DoubleValue
0.86

@<SCITEGIC>MOL_PROPERTY
G
SciTegic.value.DoubleValue
497.445

@<SCITEGIC>MOL_PROPERTY
E
SciTegic.value.DoubleValue
314.487

@<SCITEGIC>MOL_PROPERTY
-TS
SciTegic.value.DoubleValue
182.957

@<SCITEGIC>MOL_PROPERTY
U+W
SciTegic.value.DoubleValue
188.399

@<SCITEGIC>MOL_PROPERTY
U
SciTegic.value.DoubleValue
267.597

@<SCITEGIC>MOL_PROPERTY
W
SciTegic.value.DoubleValue
-79.198

@<SCITEGIC>MOL_PROPERTY
W(PB)
SciTegic.value.DoubleValue
-85.173

@<SCITEGIC>MOL_PROPERTY
W(SA)
SciTegic.value.DoubleValue
5.975

@<SCITEGIC>MOL_PROPERTY
Valence
SciTegic.value.DoubleValue
151.014

@<SCITEGIC>MOL_PROPERTY
Coulomb
SciTegic.value.DoubleValue
140.029

@<SCITEGIC>MOL_PROPERTY
VdW
SciTegic.value.DoubleValue
-23.446

@<SCITEGIC>MOL_PROPERTY
VdW6
SciTegic.value.DoubleValue
-181.760

@<SCITEGIC>MOL_PROPERTY
VdW12
SciTegic.value.DoubleValue
158.314

@<SCITEGIC>MOL_PROPERTY
Bond
SciTegic.value.DoubleValue
5.107

@<SCITEGIC>MOL_PROPERTY
Angle
SciTegic.value.DoubleValue
14.851

@<SCITEGIC>MOL_PROPERTY
Pdih
SciTegic.value.DoubleValue
131.042

@<SCITEGIC>MOL_PROPERTY
Idih
SciTegic.value.DoubleValue
0.014

@<SCITEGIC>MOL_PROPERTY
Tether
SciTegic.value.DoubleValue
0.000

