@<TRIPOS>MOLECULE
CD_guest-s11_fast_vm2_rndm.mol2 : feprocess host+ligand conformer 1
         146         151           2
SMALL
USER_CHARGES
 
@<TRIPOS>ATOM
       1    C1      16.130831   15.045054   20.526265 C.3        1 MOL1         0.2972
       2    H1      15.063413   14.978650   20.279274 H          1 MOL1         0.0751
       3    O1      16.524150   16.402608   20.823326 O.3        1 MOL1        -0.3740
       4    C2      16.496506   14.113693   21.709746 C.3        1 MOL1         0.1003
       5    H2      16.338964   13.082665   21.366591 H          1 MOL1         0.0783
       6    O2      15.670882   14.346627   22.860075 O.3        1 MOL1        -0.5519
       7    H3      15.878426   15.259976   23.181706 H          1 MOL1         0.3769
       8    C3      17.992391   14.270267   22.071255 C.3        1 MOL1         0.1053
       9    H4      18.139496   15.284793   22.466909 H          1 MOL1         0.0783
      10    O3      18.324407   13.305993   23.077186 O.3        1 MOL1        -0.5519
      11    H5      17.540726   13.280041   23.672545 H          1 MOL1         0.3769
      12    C4      18.911907   14.101819   20.826950 C.3        1 MOL1         0.1018
      13    H6      19.058701   13.032090   20.628298 H          1 MOL1         0.0783
      14    C5      18.356107   14.780979   19.539559 C.3        1 MOL1         0.1043
      15    H7      18.562298   15.855392   19.603835 H          1 MOL1         0.0783
      16    O4      16.924078   14.593568   19.411320 O.3        1 MOL1        -0.3740
      17    C6      19.036822   14.270937   18.247332 C.3        1 MOL1         0.0138
      18    H8      20.093951   14.568443   18.271605 H          1 MOL1         0.0794
      19    H9      18.574049   14.771574   17.386393 H          1 MOL1         0.0794
      20    O5      18.935494   12.847887   18.108560 O.3        1 MOL1        -0.5486
      21    H10     19.354134   12.600801   17.255223 H          1 MOL1         0.3769
      22    C7      15.229640   20.135165   21.982643 C.3        1 MOL1         0.2972
      23    H11     14.672514   21.010568   22.339758 H          1 MOL1         0.0751
      24    O6      16.489096   20.511417   21.392542 O.3        1 MOL1        -0.3740
      25    C8      15.514027   19.176145   23.162072 C.3        1 MOL1         0.1003
      26    H12     14.544500   18.874801   23.579709 H          1 MOL1         0.0783
      27    O7      16.292252   19.832429   24.180131 O.3        1 MOL1        -0.5519
      28    H13     16.212927   20.803521   24.019545 H          1 MOL1         0.3769
      29    C9      16.248304   17.909298   22.668577 C.3        1 MOL1         0.1053
      30    H14     17.247475   18.210407   22.340006 H          1 MOL1         0.0783
      31    O8      16.360148   16.988456   23.756470 O.3        1 MOL1        -0.5519
      32    H15     16.636405   17.541734   24.521276 H          1 MOL1         0.3769
      33    C10     15.543797   17.251050   21.454564 C.3        1 MOL1         0.1018
      34    H16     14.670769   16.687723   21.809836 H          1 MOL1         0.0783
      35    C11     15.111708   18.286971   20.377964 C.3        1 MOL1         0.1043
      36    H17     16.016328   18.631656   19.861549 H          1 MOL1         0.0783
      37    O9      14.459146   19.426239   20.990660 O.3        1 MOL1        -0.3740
      38    C12     14.168531   17.699833   19.300892 C.3        1 MOL1         0.0138
      39    H18     14.746730   17.011302   18.669850 H          1 MOL1         0.0794
      40    H19     13.819517   18.517670   18.656213 H          1 MOL1         0.0794
      41    O10     13.053599   17.008775   19.877758 O.3        1 MOL1        -0.5486
      42    H20     12.460976   16.734131   19.144204 H          1 MOL1         0.3769
      43    C13     18.554804   24.043677   20.572936 C.3        1 MOL1         0.2972
      44    H21     18.859883   25.042368   20.235016 H          1 MOL1         0.0751
      45    O11     19.694714   23.237359   20.936537 O.3        1 MOL1        -0.3740
      46    C14     17.557744   24.124266   21.763267 C.3        1 MOL1         0.1003
      47    H22     16.651880   24.616264   21.385439 H          1 MOL1         0.0783
      48    O12     18.068440   24.900314   22.856048 O.3        1 MOL1        -0.5519
      49    H23     18.854985   24.417097   23.213160 H          1 MOL1         0.3769
      50    C15     17.160120   22.699894   22.226166 C.3        1 MOL1         0.1053
      51    H24     18.059498   22.188950   22.595898 H          1 MOL1         0.0783
      52    O13     16.191143   22.790531   23.277102 O.3        1 MOL1        -0.5519
      53    H25     16.497546   23.534799   23.842948 H          1 MOL1         0.3769
      54    C16     16.598299   21.896351   21.022443 C.3        1 MOL1         0.1018
      55    H26     15.621733   22.314358   20.744879 H          1 MOL1         0.0783
      56    C17     17.539512   21.958484   19.789309 C.3        1 MOL1         0.1043
      57    H27     18.457873   21.407768   20.029290 H          1 MOL1         0.0783
      58    O14     17.871226   23.342869   19.507358 O.3        1 MOL1        -0.3740
      59    C18     16.949671   21.302052   18.514579 C.3        1 MOL1         0.0138
      60    H28     17.135925   20.221397   18.565174 H          1 MOL1         0.0794
      61    H29     17.495805   21.680022   17.640072 H          1 MOL1         0.0794
      62    O15     15.544302   21.536593   18.360016 O.3        1 MOL1        -0.5486
      63    H30     15.084479   21.045724   19.076759 H          1 MOL1         0.3769
      64    C19     23.547888   22.854612   22.088869 C.3        1 MOL1         0.2972
      65    H31     24.595710   22.896056   22.413387 H          1 MOL1         0.0751
      66    O16     23.203357   21.563349   21.542613 O.3        1 MOL1        -0.3740
      67    C20     22.606303   23.165122   23.275524 C.3        1 MOL1         0.1003
      68    H32     22.803072   24.197897   23.591794 H          1 MOL1         0.0783
      69    O17     22.832477   22.276489   24.382386 O.3        1 MOL1        -0.5519
      70    H33     23.572097   21.671465   24.127452 H          1 MOL1         0.3769
      71    C21     21.135293   23.067667   22.824498 C.3        1 MOL1         0.1053
      72    H34     20.940806   22.018522   22.589926 H          1 MOL1         0.0783
      73    O18     20.293057   23.468940   23.907075 O.3        1 MOL1        -0.5519
      74    H35     20.711011   23.071043   24.704291 H          1 MOL1         0.3769
      75    C22     20.834250   23.883244   21.539240 C.3        1 MOL1         0.1018
      76    H36     20.629958   24.926826   21.812209 H          1 MOL1         0.0783
      77    C23     21.970003   23.808608   20.472960 C.3        1 MOL1         0.1043
      78    H37     21.864837   22.853158   19.943179 H          1 MOL1         0.0783
      79    O19     23.287703   23.851581   21.080239 O.3        1 MOL1        -0.3740
      80    C24     21.881056   24.924103   19.404982 C.3        1 MOL1         0.0138
      81    H38     20.996549   24.738670   18.780711 H          1 MOL1         0.0794
      82    H39     22.761742   24.855487   18.752333 H          1 MOL1         0.0794
      83    O20     21.796727   26.228306   19.992374 O.3        1 MOL1        -0.5486
      84    H40     21.816980   26.885972   19.262956 H          1 MOL1         0.3769
      85    C25     24.853197   17.788189   20.931773 C.3        1 MOL1         0.2972
      86    H41     25.514670   16.948115   20.684762 H          1 MOL1         0.0751
      87    O21     23.485184   17.348569   21.080420 O.3        1 MOL1        -0.3740
      88    C26     25.331169   18.511631   22.223361 C.3        1 MOL1         0.1003
      89    H42     26.343141   18.885639   22.020094 H          1 MOL1         0.0783
      90    O22     25.387198   17.631648   23.355864 O.3        1 MOL1        -0.5519
      91    H43     24.457450   17.346125   23.543058 H          1 MOL1         0.3769
      92    C27     24.433828   19.731559   22.541314 C.3        1 MOL1         0.1053
      93    H44     23.434621   19.361465   22.805965 H          1 MOL1         0.0783
      94    O23     24.995372   20.448839   23.645088 O.3        1 MOL1        -0.5519
      95    H45     25.295109   19.754204   24.274588 H          1 MOL1         0.3769
      96    C28     24.299807   20.661313   21.308062 C.3        1 MOL1         0.1018
      97    H46     25.245342   21.199601   21.162569 H          1 MOL1         0.0783
      98    C29     23.962078   19.874864   20.013042 C.3        1 MOL1         0.1043
      99    H47     22.940707   19.488535   20.102433 H          1 MOL1         0.0783
     100    O24     24.879674   18.763304   19.865297 O.3        1 MOL1        -0.3740
     101    C30     23.998045   20.736215   18.725390 C.3        1 MOL1         0.0138
     102    H48     23.062268   21.306684   18.662660 H          1 MOL1         0.0794
     103    H49     24.023214   20.064510   17.857022 H          1 MOL1         0.0794
     104    O25     25.111213   21.637124   18.684366 O.3        1 MOL1        -0.5486
     105    H50     24.919380   22.367768   19.312189 H          1 MOL1         0.3769
     106    C31     21.142864   14.004329   21.851843 C.3        1 MOL1         0.2972
     107    H51     20.755701   13.018591   22.139895 H          1 MOL1         0.0751
     108    O26     20.167458   14.759869   21.102998 O.3        1 MOL1        -0.3740
     109    C32     21.571482   14.809793   23.108729 C.3        1 MOL1         0.1003
     110    H52     22.361482   14.233714   23.608103 H          1 MOL1         0.0783
     111    O27     20.484641   15.013283   24.026338 O.3        1 MOL1        -0.5519
     112    H53     19.801803   14.328223   23.828211 H          1 MOL1         0.3769
     113    C33     22.155396   16.178357   22.701138 C.3        1 MOL1         0.1053
     114    H54     21.338367   16.754460   22.254588 H          1 MOL1         0.0783
     115    O28     22.640935   16.846010   23.870051 O.3        1 MOL1        -0.5519
     116    H55     21.957660   16.659581   24.553023 H          1 MOL1         0.3769
     117    C34     23.278247   16.035681   21.644591 C.3        1 MOL1         0.1018
     118    H56     24.179481   15.651559   22.139929 H          1 MOL1         0.0783
     119    C35     22.873681   15.081639   20.485155 C.3        1 MOL1         0.1043
     120    H57     22.114606   15.587729   19.874438 H          1 MOL1         0.0783
     121    O29     22.313477   13.854790   21.019969 O.3        1 MOL1        -0.3740
     122    C36     24.047132   14.713836   19.545611 C.3        1 MOL1         0.0138
     123    H58     24.304806   15.598327   18.947517 H          1 MOL1         0.0794
     124    H59     23.706114   13.937006   18.848131 H          1 MOL1         0.0794
     125    O30     25.200013   14.263539   20.268236 O.3        1 MOL1        -0.5486
     126    H60     25.866341   13.965784   19.610952 H          1 MOL1         0.3769
     127    N1      19.959513   19.583444   25.521312 N.4        1 MOL1        -0.5919
     128    H1      19.734350   18.614617   25.767344 H          1 MOL1         0.3682
     129    H2      20.563791   19.952709   26.262534 H          1 MOL1         0.3682
     130    H3      19.081359   20.113088   25.549891 H          1 MOL1         0.3682
     131    C1      20.621789   19.676528   24.163063 C.3        1 MOL1         0.0252
     132    H4      21.537454   19.079116   24.187097 H          1 MOL1         0.0971
     133    H5      20.898287   20.718979   23.999914 H          1 MOL1         0.0971
     134    C2      19.704339   19.184571   23.031813 C.3        1 MOL1        -0.1369
     135    H6      19.434420   18.139050   23.235130 H          1 MOL1         0.0997
     136    H7      18.774437   19.767185   23.037154 H          1 MOL1         0.0997
     137    C3      20.361120   19.289066   21.637801 C.3        1 MOL1        -0.1329
     138    H8      21.379723   18.887731   21.683785 H          1 MOL1         0.0997
     139    H9      20.452979   20.340221   21.338442 H          1 MOL1         0.0997
     140    C4      19.550303   18.521465   20.571651 C.3        1 MOL1        -0.1305
     141    H10     19.413731   17.481274   20.896279 H          1 MOL1         0.0997
     142    H11     18.546280   18.956604   20.483085 H          1 MOL1         0.0997
     143    C5      20.244859   18.539831   19.194556 C.3        1 MOL1        -0.2320
     144    H12     21.222070   18.041523   19.241971 H          1 MOL1         0.1008
     145    H13     19.636424   18.014517   18.447295 H          1 MOL1         0.1008
     146    H14     20.398983   19.568293   18.843197 H          1 MOL1         0.1008
@<TRIPOS>BOND
    1     1     2    1
    2     1     3    1
    3     1     4    1
    4     4     5    1
    5     4     6    1
    6     6     7    1
    7     4     8    1
    8     8     9    1
    9     8    10    1
   10    10    11    1
   11     8    12    1
   12    12    13    1
   13    12    14    1
   14    14    15    1
   15     1    16    1
   16    14    16    1
   17    14    17    1
   18    17    18    1
   19    17    19    1
   20    17    20    1
   21    20    21    1
   22    22    23    1
   23    22    24    1
   24    22    25    1
   25    25    26    1
   26    25    27    1
   27    27    28    1
   28    25    29    1
   29    29    30    1
   30    29    31    1
   31    31    32    1
   32     3    33    1
   33    29    33    1
   34    33    34    1
   35    33    35    1
   36    35    36    1
   37    22    37    1
   38    35    37    1
   39    35    38    1
   40    38    39    1
   41    38    40    1
   42    38    41    1
   43    41    42    1
   44    43    44    1
   45    43    45    1
   46    43    46    1
   47    46    47    1
   48    46    48    1
   49    48    49    1
   50    46    50    1
   51    50    51    1
   52    50    52    1
   53    52    53    1
   54    24    54    1
   55    50    54    1
   56    54    55    1
   57    54    56    1
   58    56    57    1
   59    43    58    1
   60    56    58    1
   61    56    59    1
   62    59    60    1
   63    59    61    1
   64    59    62    1
   65    62    63    1
   66    64    65    1
   67    64    66    1
   68    64    67    1
   69    67    68    1
   70    67    69    1
   71    69    70    1
   72    67    71    1
   73    71    72    1
   74    71    73    1
   75    73    74    1
   76    45    75    1
   77    71    75    1
   78    75    76    1
   79    75    77    1
   80    77    78    1
   81    64    79    1
   82    77    79    1
   83    77    80    1
   84    80    81    1
   85    80    82    1
   86    80    83    1
   87    83    84    1
   88    85    86    1
   89    85    87    1
   90    85    88    1
   91    88    89    1
   92    88    90    1
   93    90    91    1
   94    88    92    1
   95    92    93    1
   96    92    94    1
   97    94    95    1
   98    66    96    1
   99    92    96    1
  100    96    97    1
  101    96    98    1
  102    98    99    1
  103    85   100    1
  104    98   100    1
  105    98   101    1
  106   101   102    1
  107   101   103    1
  108   101   104    1
  109   104   105    1
  110   106   107    1
  111    12   108    1
  112   106   108    1
  113   106   109    1
  114   109   110    1
  115   109   111    1
  116   111   112    1
  117   109   113    1
  118   113   114    1
  119   113   115    1
  120   115   116    1
  121    87   117    1
  122   113   117    1
  123   117   118    1
  124   117   119    1
  125   119   120    1
  126   106   121    1
  127   119   121    1
  128   119   122    1
  129   122   123    1
  130   122   124    1
  131   122   125    1
  132   125   126    1
  133   127   128    1
  134   127   129    1
  135   127   130    1
  136   127   131    1
  137   131   132    1
  138   131   133    1
  139   131   134    1
  140   134   135    1
  141   134   136    1
  142   134   137    1
  143   137   138    1
  144   137   139    1
  145   137   140    1
  146   140   141    1
  147   140   142    1
  148   140   143    1
  149   143   144    1
  150   143   145    1
  151   143   146    1
@<TRIPOS>SUBSTRUCTURE
       1 MOL1            1 RESIDUE      1      MOL     
       2 MOL1          146 RESIDUE      1      MOL     
@<SCITEGIC>MOL_PROPERTY
feprocess Rank
SciTegic.value.IntegerValue
1

@<SCITEGIC>MOL_PROPERTY
Conf_Id
SciTegic.value.IntegerValue
545

@<SCITEGIC>MOL_PROPERTY
Probability
SciTegic.value.DoubleValue
37.36

@<SCITEGIC>MOL_PROPERTY
G
SciTegic.value.DoubleValue
557.267

@<SCITEGIC>MOL_PROPERTY
E
SciTegic.value.DoubleValue
364.935

@<SCITEGIC>MOL_PROPERTY
-TS
SciTegic.value.DoubleValue
192.332

@<SCITEGIC>MOL_PROPERTY
U+W
SciTegic.value.DoubleValue
236.164

@<SCITEGIC>MOL_PROPERTY
U
SciTegic.value.DoubleValue
325.321

@<SCITEGIC>MOL_PROPERTY
W
SciTegic.value.DoubleValue
-89.156

@<SCITEGIC>MOL_PROPERTY
W(PB)
SciTegic.value.DoubleValue
-95.130

@<SCITEGIC>MOL_PROPERTY
W(SA)
SciTegic.value.DoubleValue
5.974

@<SCITEGIC>MOL_PROPERTY
Valence
SciTegic.value.DoubleValue
145.527

@<SCITEGIC>MOL_PROPERTY
Coulomb
SciTegic.value.DoubleValue
203.471

@<SCITEGIC>MOL_PROPERTY
VdW
SciTegic.value.DoubleValue
-23.677

@<SCITEGIC>MOL_PROPERTY
VdW6
SciTegic.value.DoubleValue
-177.456

@<SCITEGIC>MOL_PROPERTY
VdW12
SciTegic.value.DoubleValue
153.779

@<SCITEGIC>MOL_PROPERTY
Bond
SciTegic.value.DoubleValue
4.795

@<SCITEGIC>MOL_PROPERTY
Angle
SciTegic.value.DoubleValue
13.027

@<SCITEGIC>MOL_PROPERTY
Pdih
SciTegic.value.DoubleValue
127.705

@<SCITEGIC>MOL_PROPERTY
Idih
SciTegic.value.DoubleValue
0.000

@<SCITEGIC>MOL_PROPERTY
Tether
SciTegic.value.DoubleValue
0.000

