@<TRIPOS>MOLECULE
CD_guest-s20_fast_vm2_rndm.mol2 : feprocess host+ligand conformer 1
         143         148           2
SMALL
USER_CHARGES
 
@<TRIPOS>ATOM
       1    C1      16.145926   15.093606   20.825468 C.3        1 MOL1         0.2972
       2    H1      15.097368   14.916802   20.553947 H          1 MOL1         0.0751
       3    O1      16.399121   16.482434   21.112560 O.3        1 MOL1        -0.3740
       4    C2      16.533070   14.265317   22.076730 C.3        1 MOL1         0.1003
       5    H2      16.394873   13.205855   21.824712 H          1 MOL1         0.0783
       6    O2      15.695857   14.593843   23.196871 O.3        1 MOL1        -0.5519
       7    H3      15.592864   15.579438   23.212585 H          1 MOL1         0.3769
       8    C3      18.024720   14.478745   22.429858 C.3        1 MOL1         0.1053
       9    H4      18.158640   15.524699   22.736569 H          1 MOL1         0.0783
      10    O3      18.393503   13.605647   23.504082 O.3        1 MOL1        -0.5519
      11    H5      17.668439   13.691798   24.162139 H          1 MOL1         0.3769
      12    C4      18.932442   14.210811   21.204887 C.3        1 MOL1         0.1018
      13    H6      18.960308   13.126583   21.034757 H          1 MOL1         0.0783
      14    C5      18.425465   14.936208   19.924035 C.3        1 MOL1         0.1043
      15    H7      18.592632   16.014087   20.049543 H          1 MOL1         0.0783
      16    O4      17.009112   14.688014   19.745077 O.3        1 MOL1        -0.3740
      17    C6      19.134275   14.493371   18.621126 C.3        1 MOL1         0.0138
      18    H8      20.140344   14.927702   18.600164 H          1 MOL1         0.0794
      19    H9      18.587314   14.915235   17.767352 H          1 MOL1         0.0794
      20    O5      19.214460   13.066716   18.503740 O.3        1 MOL1        -0.5486
      21    H10     19.642658   12.862994   17.644209 H          1 MOL1         0.3769
      22    C7      14.755042   20.262819   20.950181 C.3        1 MOL1         0.2972
      23    H11     14.128970   21.158568   20.850172 H          1 MOL1         0.0751
      24    O6      16.159645   20.606371   20.992607 O.3        1 MOL1        -0.3740
      25    C8      14.358612   19.441565   22.206664 C.3        1 MOL1         0.1003
      26    H12     13.337547   19.074681   22.038718 H          1 MOL1         0.0783
      27    O7      14.364148   20.229762   23.405425 O.3        1 MOL1        -0.5519
      28    H13     15.307010   20.480961   23.574277 H          1 MOL1         0.3769
      29    C9      15.284395   18.210218   22.343682 C.3        1 MOL1         0.1053
      30    H14     16.311728   18.561140   22.509602 H          1 MOL1         0.0783
      31    O8      14.858246   17.412721   23.453328 O.3        1 MOL1        -0.5519
      32    H15     14.687773   18.053745   24.178989 H          1 MOL1         0.3769
      33    C10     15.260465   17.363086   21.047706 C.3        1 MOL1         0.1018
      34    H16     14.312927   16.808962   21.026840 H          1 MOL1         0.0783
      35    C11     15.395160   18.217787   19.752098 C.3        1 MOL1         0.1043
      36    H17     16.436148   18.546357   19.657957 H          1 MOL1         0.0783
      37    O9      14.544090   19.391071   19.818505 O.3        1 MOL1        -0.3740
      38    C12     15.051433   17.432770   18.463857 C.3        1 MOL1         0.0138
      39    H18     15.842333   16.691300   18.287485 H          1 MOL1         0.0794
      40    H19     15.063367   18.129902   17.615410 H          1 MOL1         0.0794
      41    O10     13.780257   16.775938   18.552603 O.3        1 MOL1        -0.5486
      42    H20     13.610052   16.339983   17.689300 H          1 MOL1         0.3769
      43    C13     18.751802   23.722171   21.988291 C.3        1 MOL1         0.2972
      44    H21     19.190093   24.656877   22.355971 H          1 MOL1         0.0751
      45    O11     19.677046   22.976574   21.171040 O.3        1 MOL1        -0.3740
      46    C14     18.315304   22.829465   23.179417 C.3        1 MOL1         0.1003
      47    H22     17.557718   23.389171   23.742668 H          1 MOL1         0.0783
      48    O12     19.432012   22.566974   24.045963 O.3        1 MOL1        -0.5519
      49    H23     19.440143   21.599284   24.263599 H          1 MOL1         0.3769
      50    C15     17.651483   21.522614   22.672475 C.3        1 MOL1         0.1053
      51    H24     18.413378   20.924975   22.155227 H          1 MOL1         0.0783
      52    O13     17.123286   20.789899   23.784738 O.3        1 MOL1        -0.5519
      53    H25     17.905266   20.376148   24.236223 H          1 MOL1         0.3769
      54    C16     16.510215   21.835695   21.667166 C.3        1 MOL1         0.1018
      55    H26     15.660393   22.251163   22.224474 H          1 MOL1         0.0783
      56    C17     16.950354   22.848841   20.574720 C.3        1 MOL1         0.1043
      57    H27     17.671128   22.347509   19.915636 H          1 MOL1         0.0783
      58    O14     17.582019   24.000609   21.188724 O.3        1 MOL1        -0.3740
      59    C18     15.783668   23.346883   19.687920 C.3        1 MOL1         0.0138
      60    H28     15.459800   22.518957   19.042721 H          1 MOL1         0.0794
      61    H29     16.158453   24.144041   19.032077 H          1 MOL1         0.0794
      62    O15     14.675019   23.819636   20.464062 O.3        1 MOL1        -0.5486
      63    H30     14.012876   24.191733   19.841508 H          1 MOL1         0.3769
      64    C19     23.687441   22.710966   20.508322 C.3        1 MOL1         0.2972
      65    H31     24.742387   22.749777   20.207779 H          1 MOL1         0.0751
      66    O16     23.339013   21.428727   21.068740 O.3        1 MOL1        -0.3740
      67    C20     23.349214   23.825273   21.527313 C.3        1 MOL1         0.1003
      68    H32     23.497433   24.783314   21.012015 H          1 MOL1         0.0783
      69    O17     24.213908   23.779317   22.672601 O.3        1 MOL1        -0.5519
      70    H33     24.057460   22.908126   23.117767 H          1 MOL1         0.3769
      71    C21     21.863227   23.746824   21.959701 C.3        1 MOL1         0.1053
      72    H34     21.735822   22.849705   22.582268 H          1 MOL1         0.0783
      73    O18     21.569449   24.921174   22.724422 O.3        1 MOL1        -0.5519
      74    H35     22.264473   24.959556   23.417214 H          1 MOL1         0.3769
      75    C22     20.889399   23.633653   20.745680 C.3        1 MOL1         0.1018
      76    H36     20.679977   24.638640   20.359544 H          1 MOL1         0.0783
      77    C23     21.424296   22.733195   19.594778 C.3        1 MOL1         0.1043
      78    H37     21.270842   21.690334   19.897195 H          1 MOL1         0.0783
      79    O19     22.838783   22.943795   19.367326 O.3        1 MOL1        -0.3740
      80    C24     20.668985   22.920302   18.256180 C.3        1 MOL1         0.0138
      81    H38     19.645966   22.539176   18.374944 H          1 MOL1         0.0794
      82    H39     21.157945   22.300057   17.493340 H          1 MOL1         0.0794
      83    O20     20.632200   24.287338   17.826934 O.3        1 MOL1        -0.5486
      84    H40     20.004796   24.766431   18.408928 H          1 MOL1         0.3769
      85    C25     24.762688   17.864473   22.542244 C.3        1 MOL1         0.2972
      86    H41     25.341088   17.028244   22.955711 H          1 MOL1         0.0751
      87    O21     23.447100   17.435404   22.136054 O.3        1 MOL1        -0.3740
      88    C26     24.651586   18.992885   23.597961 C.3        1 MOL1         0.1003
      89    H42     25.670746   19.356926   23.781293 H          1 MOL1         0.0783
      90    O22     24.113247   18.507850   24.836396 O.3        1 MOL1        -0.5519
      91    H43     23.133097   18.386580   24.705415 H          1 MOL1         0.3769
      92    C27     23.821376   20.175288   23.049595 C.3        1 MOL1         0.1053
      93    H44     22.792533   19.829518   22.884131 H          1 MOL1         0.0783
      94    O23     23.823504   21.242392   24.003666 O.3        1 MOL1        -0.5519
      95    H45     23.473319   20.841675   24.831004 H          1 MOL1         0.3769
      96    C28     24.389914   20.669903   21.695972 C.3        1 MOL1         0.1018
      97    H46     25.285160   21.276810   21.885832 H          1 MOL1         0.0783
      98    C29     24.722137   19.507261   20.718295 C.3        1 MOL1         0.1043
      99    H47     23.764964   19.131089   20.343948 H          1 MOL1         0.0783
     100    O24     25.422761   18.421973   21.383934 O.3        1 MOL1        -0.3740
     101    C30     25.551968   19.951905   19.489931 C.3        1 MOL1         0.0138
     102    H48     24.914094   20.570012   18.843650 H          1 MOL1         0.0794
     103    H49     25.833690   19.061491   18.912124 H          1 MOL1         0.0794
     104    O25     26.720331   20.689619   19.868688 O.3        1 MOL1        -0.5486
     105    H50     27.237584   20.868604   19.053199 H          1 MOL1         0.3769
     106    C31     21.371622   13.959080   21.134102 C.3        1 MOL1         0.2972
     107    H51     21.078787   12.967156   20.766778 H          1 MOL1         0.0751
     108    O26     20.229495   14.728574   21.559081 O.3        1 MOL1        -0.3740
     109    C32     22.305783   13.822537   22.360348 C.3        1 MOL1         0.1003
     110    H52     23.170135   13.222625   22.047216 H          1 MOL1         0.0783
     111    O27     21.621258   13.149606   23.430329 O.3        1 MOL1        -0.5519
     112    H53     20.697493   13.502948   23.441927 H          1 MOL1         0.3769
     113    C33     22.831063   15.201093   22.841233 C.3        1 MOL1         0.1053
     114    H54     22.001193   15.739783   23.317462 H          1 MOL1         0.0783
     115    O28     23.875996   14.977557   23.793381 O.3        1 MOL1        -0.5519
     116    H55     23.493000   14.368116   24.461253 H          1 MOL1         0.3769
     117    C34     23.357297   16.072930   21.668230 C.3        1 MOL1         0.1018
     118    H56     24.337276   15.685550   21.360447 H          1 MOL1         0.0783
     119    C35     22.402775   16.056257   20.441065 C.3        1 MOL1         0.1043
     120    H57     21.480534   16.585038   20.705821 H          1 MOL1         0.0783
     121    O29     22.085221   14.686047   20.113762 O.3        1 MOL1        -0.3740
     122    C36     22.962493   16.736873   19.165741 C.3        1 MOL1         0.0138
     123    H58     22.665259   17.792368   19.176895 H          1 MOL1         0.0794
     124    H59     22.476224   16.289297   18.288801 H          1 MOL1         0.0794
     125    O30     24.386816   16.625747   19.043386 O.3        1 MOL1        -0.5486
     126    H60     24.788018   17.100393   19.807372 H          1 MOL1         0.3769
     127    C1      20.258258   18.890186   24.213281 C.2        1 MOL1         0.6132
     128    O1      19.572282   19.812721   24.612041 O.co2      1 MOL1        -0.6749
     129    O2      21.352954   18.612293   24.661808 O.co2      1 MOL1        -0.6749
     130    C2      19.720184   18.039552   23.072406 C.3        1 MOL1        -0.1955
     131    H1      18.630340   17.978701   23.170839 H          1 MOL1         0.0733
     132    H2      20.112557   17.026775   23.207863 H          1 MOL1         0.0733
     133    C3      20.120545   18.568216   21.709445 C.2        1 MOL1        -0.1395
     134    H3      21.180658   18.775494   21.578192 H          1 MOL1         0.0816
     135    C4      19.257889   18.783914   20.714829 C.2        1 MOL1        -0.1394
     136    H4      18.201309   18.582991   20.864587 H          1 MOL1         0.0816
     137    C5      19.638031   19.299941   19.346592 C.3        1 MOL1        -0.1826
     138    H5      19.035063   20.186340   19.110083 H          1 MOL1         0.0736
     139    H6      20.690343   19.610566   19.333714 H          1 MOL1         0.0736
     140    C6      19.418417   18.226783   18.263783 C.3        1 MOL1        -0.2882
     141    H7      18.371458   17.899051   18.241623 H          1 MOL1         0.0749
     142    H8      19.674192   18.619660   17.271503 H          1 MOL1         0.0749
     143    H9      20.049346   17.351191   18.455322 H          1 MOL1         0.0749
@<TRIPOS>BOND
    1     1     2    1
    2     1     3    1
    3     1     4    1
    4     4     5    1
    5     4     6    1
    6     6     7    1
    7     4     8    1
    8     8     9    1
    9     8    10    1
   10    10    11    1
   11     8    12    1
   12    12    13    1
   13    12    14    1
   14    14    15    1
   15     1    16    1
   16    14    16    1
   17    14    17    1
   18    17    18    1
   19    17    19    1
   20    17    20    1
   21    20    21    1
   22    22    23    1
   23    22    24    1
   24    22    25    1
   25    25    26    1
   26    25    27    1
   27    27    28    1
   28    25    29    1
   29    29    30    1
   30    29    31    1
   31    31    32    1
   32     3    33    1
   33    29    33    1
   34    33    34    1
   35    33    35    1
   36    35    36    1
   37    22    37    1
   38    35    37    1
   39    35    38    1
   40    38    39    1
   41    38    40    1
   42    38    41    1
   43    41    42    1
   44    43    44    1
   45    43    45    1
   46    43    46    1
   47    46    47    1
   48    46    48    1
   49    48    49    1
   50    46    50    1
   51    50    51    1
   52    50    52    1
   53    52    53    1
   54    24    54    1
   55    50    54    1
   56    54    55    1
   57    54    56    1
   58    56    57    1
   59    43    58    1
   60    56    58    1
   61    56    59    1
   62    59    60    1
   63    59    61    1
   64    59    62    1
   65    62    63    1
   66    64    65    1
   67    64    66    1
   68    64    67    1
   69    67    68    1
   70    67    69    1
   71    69    70    1
   72    67    71    1
   73    71    72    1
   74    71    73    1
   75    73    74    1
   76    45    75    1
   77    71    75    1
   78    75    76    1
   79    75    77    1
   80    77    78    1
   81    64    79    1
   82    77    79    1
   83    77    80    1
   84    80    81    1
   85    80    82    1
   86    80    83    1
   87    83    84    1
   88    85    86    1
   89    85    87    1
   90    85    88    1
   91    88    89    1
   92    88    90    1
   93    90    91    1
   94    88    92    1
   95    92    93    1
   96    92    94    1
   97    94    95    1
   98    66    96    1
   99    92    96    1
  100    96    97    1
  101    96    98    1
  102    98    99    1
  103    85   100    1
  104    98   100    1
  105    98   101    1
  106   101   102    1
  107   101   103    1
  108   101   104    1
  109   104   105    1
  110   106   107    1
  111    12   108    1
  112   106   108    1
  113   106   109    1
  114   109   110    1
  115   109   111    1
  116   111   112    1
  117   109   113    1
  118   113   114    1
  119   113   115    1
  120   115   116    1
  121    87   117    1
  122   113   117    1
  123   117   118    1
  124   117   119    1
  125   119   120    1
  126   106   121    1
  127   119   121    1
  128   119   122    1
  129   122   123    1
  130   122   124    1
  131   122   125    1
  132   125   126    1
  133   127   128    1
  134   127   129    2
  135   127   130    1
  136   130   131    1
  137   130   132    1
  138   130   133    1
  139   133   134    1
  140   133   135    2
  141   135   136    1
  142   135   137    1
  143   137   138    1
  144   137   139    1
  145   137   140    1
  146   140   141    1
  147   140   142    1
  148   140   143    1
@<TRIPOS>SUBSTRUCTURE
       1 MOL1            1 RESIDUE      1      MOL     
       2 MOL1          143 RESIDUE      1      MOL     
@<SCITEGIC>MOL_PROPERTY
feprocess Rank
SciTegic.value.IntegerValue
1

@<SCITEGIC>MOL_PROPERTY
Conf_Id
SciTegic.value.IntegerValue
977

@<SCITEGIC>MOL_PROPERTY
Probability
SciTegic.value.DoubleValue
70.72

@<SCITEGIC>MOL_PROPERTY
G
SciTegic.value.DoubleValue
497.819

@<SCITEGIC>MOL_PROPERTY
E
SciTegic.value.DoubleValue
314.123

@<SCITEGIC>MOL_PROPERTY
-TS
SciTegic.value.DoubleValue
183.697

@<SCITEGIC>MOL_PROPERTY
U+W
SciTegic.value.DoubleValue
188.034

@<SCITEGIC>MOL_PROPERTY
U
SciTegic.value.DoubleValue
260.235

@<SCITEGIC>MOL_PROPERTY
W
SciTegic.value.DoubleValue
-72.197

@<SCITEGIC>MOL_PROPERTY
W(PB)
SciTegic.value.DoubleValue
-78.183

@<SCITEGIC>MOL_PROPERTY
W(SA)
SciTegic.value.DoubleValue
5.986

@<SCITEGIC>MOL_PROPERTY
Valence
SciTegic.value.DoubleValue
157.956

@<SCITEGIC>MOL_PROPERTY
Coulomb
SciTegic.value.DoubleValue
126.207

@<SCITEGIC>MOL_PROPERTY
VdW
SciTegic.value.DoubleValue
-23.929

@<SCITEGIC>MOL_PROPERTY
VdW6
SciTegic.value.DoubleValue
-181.409

@<SCITEGIC>MOL_PROPERTY
VdW12
SciTegic.value.DoubleValue
157.480

@<SCITEGIC>MOL_PROPERTY
Bond
SciTegic.value.DoubleValue
5.009

@<SCITEGIC>MOL_PROPERTY
Angle
SciTegic.value.DoubleValue
14.116

@<SCITEGIC>MOL_PROPERTY
Pdih
SciTegic.value.DoubleValue
138.831

@<SCITEGIC>MOL_PROPERTY
Idih
SciTegic.value.DoubleValue
0.000

@<SCITEGIC>MOL_PROPERTY
Tether
SciTegic.value.DoubleValue
0.000

@<TRIPOS>MOLECULE
CD_guest-s20_fast_vm2_rndm.mol2 : feprocess host+ligand conformer 2
         143         148           2
SMALL
USER_CHARGES
 
@<TRIPOS>ATOM
       1    C1      16.202168   15.252065   20.605874 C.3        1 MOL1         0.2972
       2    H1      15.180845   15.120750   20.225658 H          1 MOL1         0.0751
       3    O1      16.402054   16.563674   21.163339 O.3        1 MOL1        -0.3740
       4    C2      16.523639   14.215431   21.708955 C.3        1 MOL1         0.1003
       5    H2      16.425005   13.220177   21.256355 H          1 MOL1         0.0783
       6    O2      15.599908   14.328307   22.804392 O.3        1 MOL1        -0.5519
       7    H3      15.585645   15.279722   23.080707 H          1 MOL1         0.3769
       8    C3      17.981819   14.365488   22.215380 C.3        1 MOL1         0.1053
       9    H4      18.049215   15.295595   22.797621 H          1 MOL1         0.0783
      10    O3      18.280017   13.242576   23.051287 O.3        1 MOL1        -0.5519
      11    H5      17.551007   13.207441   23.708346 H          1 MOL1         0.3769
      12    C4      19.010216   14.455623   21.050854 C.3        1 MOL1         0.1018
      13    H6      19.210587   13.445712   20.671927 H          1 MOL1         0.0783
      14    C5      18.531804   15.361783   19.882730 C.3        1 MOL1         0.1043
      15    H7      18.599891   16.404859   20.217496 H          1 MOL1         0.0783
      16    O4      17.157661   15.061541   19.543386 O.3        1 MOL1        -0.3740
      17    C6      19.390946   15.243645   18.598430 C.3        1 MOL1         0.0138
      18    H8      20.320704   15.804777   18.746500 H          1 MOL1         0.0794
      19    H9      18.853056   15.731171   17.774573 H          1 MOL1         0.0794
      20    O5      19.698430   13.887836   18.250932 O.3        1 MOL1        -0.5486
      21    H10     20.341144   13.552623   18.912756 H          1 MOL1         0.3769
      22    C7      14.679120   20.246916   21.689066 C.3        1 MOL1         0.2972
      23    H11     14.031013   21.123330   21.818940 H          1 MOL1         0.0751
      24    O6      16.064893   20.624030   21.585146 O.3        1 MOL1        -0.3740
      25    C8      14.532845   19.302092   22.904766 C.3        1 MOL1         0.1003
      26    H12     13.488058   18.967539   22.944821 H          1 MOL1         0.0783
      27    O7      14.859078   20.000753   24.116622 O.3        1 MOL1        -0.5519
      28    H13     15.471423   20.732824   23.862697 H          1 MOL1         0.3769
      29    C9      15.432451   18.055729   22.740057 C.3        1 MOL1         0.1053
      30    H14     16.476542   18.384618   22.804642 H          1 MOL1         0.0783
      31    O8      15.157547   17.122229   23.790061 O.3        1 MOL1        -0.5519
      32    H15     15.157639   17.659639   24.613318 H          1 MOL1         0.3769
      33    C10     15.229970   17.372608   21.365543 C.3        1 MOL1         0.1018
      34    H16     14.311343   16.772111   21.403565 H          1 MOL1         0.0783
      35    C11     15.172907   18.380613   20.182814 C.3        1 MOL1         0.1043
      36    H17     16.195496   18.738667   20.014302 H          1 MOL1         0.0783
      37    O9      14.321156   19.511945   20.500822 O.3        1 MOL1        -0.3740
      38    C12     14.682692   17.756879   18.854258 C.3        1 MOL1         0.0138
      39    H18     15.464566   17.085934   18.473548 H          1 MOL1         0.0794
      40    H19     14.555343   18.559431   18.115284 H          1 MOL1         0.0794
      41    O10     13.457643   17.032259   19.019216 O.3        1 MOL1        -0.5486
      42    H20     13.167046   16.731662   18.130575 H          1 MOL1         0.3769
      43    C13     18.526928   23.867318   20.667714 C.3        1 MOL1         0.2972
      44    H21     18.928850   24.825117   20.313445 H          1 MOL1         0.0751
      45    O11     19.585813   22.955792   21.025109 O.3        1 MOL1        -0.3740
      46    C14     17.561633   24.071349   21.870676 C.3        1 MOL1         0.1003
      47    H22     16.735346   24.699221   21.512829 H          1 MOL1         0.0783
      48    O12     18.198273   24.736251   22.971513 O.3        1 MOL1        -0.5519
      49    H23     18.919761   24.136114   23.289059 H          1 MOL1         0.3769
      50    C15     16.961371   22.718706   22.327268 C.3        1 MOL1         0.1053
      51    H24     17.777669   22.100735   22.723610 H          1 MOL1         0.0783
      52    O13     15.980375   22.940884   23.346333 O.3        1 MOL1        -0.5519
      53    H25     16.387806   23.593437   23.958145 H          1 MOL1         0.3769
      54    C16     16.321155   21.966542   21.135055 C.3        1 MOL1         0.1018
      55    H26     15.400918   22.488290   20.840978 H          1 MOL1         0.0783
      56    C17     17.282303   21.896583   19.917714 C.3        1 MOL1         0.1043
      57    H27     18.126146   21.254962   20.198638 H          1 MOL1         0.0783
      58    O14     17.762485   23.232640   19.618624 O.3        1 MOL1        -0.3740
      59    C18     16.670914   21.298685   18.623805 C.3        1 MOL1         0.0138
      60    H28     16.867580   20.220089   18.610717 H          1 MOL1         0.0794
      61    H29     17.202938   21.721211   17.760998 H          1 MOL1         0.0794
      62    O15     15.263796   21.537574   18.495709 O.3        1 MOL1        -0.5486
      63    H30     14.808911   20.946669   19.140585 H          1 MOL1         0.3769
      64    C19     23.573986   22.614730   22.067893 C.3        1 MOL1         0.2972
      65    H31     24.610826   22.758957   22.397603 H          1 MOL1         0.0751
      66    O16     23.373485   21.300631   21.510796 O.3        1 MOL1        -0.3740
      67    C20     22.604339   22.839002   23.256093 C.3        1 MOL1         0.1003
      68    H32     22.723166   23.884272   23.569025 H          1 MOL1         0.0783
      69    O17     22.913928   21.991134   24.371390 O.3        1 MOL1        -0.5519
      70    H33     22.606031   21.072895   24.135772 H          1 MOL1         0.3769
      71    C21     21.137612   22.642982   22.814031 C.3        1 MOL1         0.1053
      72    H34     21.004249   21.591091   22.529914 H          1 MOL1         0.0783
      73    O18     20.274561   22.972479   23.908478 O.3        1 MOL1        -0.5519
      74    H35     20.631905   22.457523   24.666303 H          1 MOL1         0.3769
      75    C22     20.796764   23.509676   21.577861 C.3        1 MOL1         0.1018
      76    H36     20.668076   24.552019   21.897439 H          1 MOL1         0.0783
      77    C23     21.891417   23.420545   20.474907 C.3        1 MOL1         0.1043
      78    H37     21.816337   22.428920   20.011966 H          1 MOL1         0.0783
      79    O19     23.218583   23.574985   21.048022 O.3        1 MOL1        -0.3740
      80    C24     21.717064   24.463342   19.345544 C.3        1 MOL1         0.0138
      81    H38     20.839320   24.183406   18.747357 H          1 MOL1         0.0794
      82    H39     22.592290   24.412370   18.684112 H          1 MOL1         0.0794
      83    O20     21.553770   25.792662   19.855762 O.3        1 MOL1        -0.5486
      84    H40     21.530019   26.405597   19.088790 H          1 MOL1         0.3769
      85    C25     25.095049   17.667054   20.804077 C.3        1 MOL1         0.2972
      86    H41     25.686529   16.783975   20.530645 H          1 MOL1         0.0751
      87    O21     23.717436   17.317355   21.058127 O.3        1 MOL1        -0.3740
      88    C26     25.709791   18.394334   22.028306 C.3        1 MOL1         0.1003
      89    H42     26.702460   18.746511   21.718914 H          1 MOL1         0.0783
      90    O22     25.867808   17.517782   23.153853 O.3        1 MOL1        -0.5519
      91    H43     24.954594   17.279462   23.455320 H          1 MOL1         0.3769
      92    C27     24.872147   19.638600   22.414223 C.3        1 MOL1         0.1053
      93    H44     23.915780   19.293687   22.831116 H          1 MOL1         0.0783
      94    O23     25.596006   20.388601   23.395277 O.3        1 MOL1        -0.5519
      95    H45     25.777774   19.758341   24.125036 H          1 MOL1         0.3769
      96    C28     24.561010   20.546361   21.192538 C.3        1 MOL1         0.1018
      97    H46     25.420111   21.203943   21.011450 H          1 MOL1         0.0783
      98    C29     24.237542   19.764794   19.887037 C.3        1 MOL1         0.1043
      99    H47     23.202826   19.406901   19.955549 H          1 MOL1         0.0783
     100    O24     25.113875   18.622205   19.725497 O.3        1 MOL1        -0.3740
     101    C30     24.338605   20.641051   18.613230 C.3        1 MOL1         0.0138
     102    H48     23.555161   21.408919   18.649436 H          1 MOL1         0.0794
     103    H49     24.132778   20.007237   17.740532 H          1 MOL1         0.0794
     104    O25     25.618924   21.269976   18.471468 O.3        1 MOL1        -0.5486
     105    H50     25.659291   22.013015   19.110290 H          1 MOL1         0.3769
     106    C31     21.195016   14.205285   22.139449 C.3        1 MOL1         0.2972
     107    H51     20.749483   13.264541   22.485936 H          1 MOL1         0.0751
     108    O26     20.206202   15.078471   21.557476 O.3        1 MOL1        -0.3740
     109    C32     21.876162   14.935383   23.323408 C.3        1 MOL1         0.1003
     110    H52     22.698139   14.295141   23.668078 H          1 MOL1         0.0783
     111    O27     20.954110   15.117346   24.409023 O.3        1 MOL1        -0.5519
     112    H53     20.744561   16.087354   24.458366 H          1 MOL1         0.3769
     113    C33     22.488750   16.274180   22.840817 C.3        1 MOL1         0.1053
     114    H54     21.677502   16.915818   22.471499 H          1 MOL1         0.0783
     115    O28     23.165873   16.928878   23.920442 O.3        1 MOL1        -0.5519
     116    H55     22.477110   17.513954   24.337332 H          1 MOL1         0.3769
     117    C34     23.461814   16.031704   21.660848 C.3        1 MOL1         0.1018
     118    H56     24.378210   15.564492   22.044622 H          1 MOL1         0.0783
     119    C35     22.828421   15.133817   20.559499 C.3        1 MOL1         0.1043
     120    H57     22.058542   15.728683   20.054195 H          1 MOL1         0.0783
     121    O29     22.209004   13.955043   21.140510 O.3        1 MOL1        -0.3740
     122    C36     23.837657   14.676844   19.479482 C.3        1 MOL1         0.0138
     123    H58     24.114910   15.548762   18.871586 H          1 MOL1         0.0794
     124    H59     23.338331   13.960373   18.813566 H          1 MOL1         0.0794
     125    O30     25.013281   14.090422   20.052183 O.3        1 MOL1        -0.5486
     126    H60     25.568590   13.755038   19.314852 H          1 MOL1         0.3769
     127    C1      20.563492   18.913612   24.013956 C.2        1 MOL1         0.6132
     128    O1      21.566879   19.597587   23.964898 O.co2      1 MOL1        -0.6749
     129    O2      20.518672   17.859180   24.617153 O.co2      1 MOL1        -0.6749
     130    C2      19.299986   19.385003   23.298721 C.3        1 MOL1        -0.1955
     131    H1      19.149408   20.446002   23.515938 H          1 MOL1         0.0733
     132    H2      18.461812   18.864140   23.773723 H          1 MOL1         0.0733
     133    C3      19.253233   19.137747   21.796477 C.2        1 MOL1        -0.1395
     134    H3      18.255089   18.974452   21.396641 H          1 MOL1         0.0816
     135    C4      20.308143   19.083026   20.975894 C.2        1 MOL1        -0.1394
     136    H4      21.316577   19.237080   21.357195 H          1 MOL1         0.0816
     137    C5      20.212198   18.794673   19.492530 C.3        1 MOL1        -0.1826
     138    H5      20.932227   18.008654   19.231907 H          1 MOL1         0.0736
     139    H6      19.214581   18.412977   19.240170 H          1 MOL1         0.0736
     140    C6      20.500036   20.043236   18.636228 C.3        1 MOL1        -0.2882
     141    H7      20.438792   19.803159   17.567232 H          1 MOL1         0.0749
     142    H8      19.785472   20.845792   18.845311 H          1 MOL1         0.0749
     143    H9      21.500903   20.431087   18.840296 H          1 MOL1         0.0749
@<TRIPOS>BOND
    1     1     2    1
    2     1     3    1
    3     1     4    1
    4     4     5    1
    5     4     6    1
    6     6     7    1
    7     4     8    1
    8     8     9    1
    9     8    10    1
   10    10    11    1
   11     8    12    1
   12    12    13    1
   13    12    14    1
   14    14    15    1
   15     1    16    1
   16    14    16    1
   17    14    17    1
   18    17    18    1
   19    17    19    1
   20    17    20    1
   21    20    21    1
   22    22    23    1
   23    22    24    1
   24    22    25    1
   25    25    26    1
   26    25    27    1
   27    27    28    1
   28    25    29    1
   29    29    30    1
   30    29    31    1
   31    31    32    1
   32     3    33    1
   33    29    33    1
   34    33    34    1
   35    33    35    1
   36    35    36    1
   37    22    37    1
   38    35    37    1
   39    35    38    1
   40    38    39    1
   41    38    40    1
   42    38    41    1
   43    41    42    1
   44    43    44    1
   45    43    45    1
   46    43    46    1
   47    46    47    1
   48    46    48    1
   49    48    49    1
   50    46    50    1
   51    50    51    1
   52    50    52    1
   53    52    53    1
   54    24    54    1
   55    50    54    1
   56    54    55    1
   57    54    56    1
   58    56    57    1
   59    43    58    1
   60    56    58    1
   61    56    59    1
   62    59    60    1
   63    59    61    1
   64    59    62    1
   65    62    63    1
   66    64    65    1
   67    64    66    1
   68    64    67    1
   69    67    68    1
   70    67    69    1
   71    69    70    1
   72    67    71    1
   73    71    72    1
   74    71    73    1
   75    73    74    1
   76    45    75    1
   77    71    75    1
   78    75    76    1
   79    75    77    1
   80    77    78    1
   81    64    79    1
   82    77    79    1
   83    77    80    1
   84    80    81    1
   85    80    82    1
   86    80    83    1
   87    83    84    1
   88    85    86    1
   89    85    87    1
   90    85    88    1
   91    88    89    1
   92    88    90    1
   93    90    91    1
   94    88    92    1
   95    92    93    1
   96    92    94    1
   97    94    95    1
   98    66    96    1
   99    92    96    1
  100    96    97    1
  101    96    98    1
  102    98    99    1
  103    85   100    1
  104    98   100    1
  105    98   101    1
  106   101   102    1
  107   101   103    1
  108   101   104    1
  109   104   105    1
  110   106   107    1
  111    12   108    1
  112   106   108    1
  113   106   109    1
  114   109   110    1
  115   109   111    1
  116   111   112    1
  117   109   113    1
  118   113   114    1
  119   113   115    1
  120   115   116    1
  121    87   117    1
  122   113   117    1
  123   117   118    1
  124   117   119    1
  125   119   120    1
  126   106   121    1
  127   119   121    1
  128   119   122    1
  129   122   123    1
  130   122   124    1
  131   122   125    1
  132   125   126    1
  133   127   128    1
  134   127   129    2
  135   127   130    1
  136   130   131    1
  137   130   132    1
  138   130   133    1
  139   133   134    1
  140   133   135    2
  141   135   136    1
  142   135   137    1
  143   137   138    1
  144   137   139    1
  145   137   140    1
  146   140   141    1
  147   140   142    1
  148   140   143    1
@<TRIPOS>SUBSTRUCTURE
       1 MOL1            1 RESIDUE      1      MOL     
       2 MOL1          143 RESIDUE      1      MOL     
@<SCITEGIC>MOL_PROPERTY
feprocess Rank
SciTegic.value.IntegerValue
2

@<SCITEGIC>MOL_PROPERTY
Conf_Id
SciTegic.value.IntegerValue
865

@<SCITEGIC>MOL_PROPERTY
Probability
SciTegic.value.DoubleValue
6.21

@<SCITEGIC>MOL_PROPERTY
G
SciTegic.value.DoubleValue
499.270

@<SCITEGIC>MOL_PROPERTY
E
SciTegic.value.DoubleValue
316.833

@<SCITEGIC>MOL_PROPERTY
-TS
SciTegic.value.DoubleValue
182.437

@<SCITEGIC>MOL_PROPERTY
U+W
SciTegic.value.DoubleValue
190.745

@<SCITEGIC>MOL_PROPERTY
U
SciTegic.value.DoubleValue
260.939

@<SCITEGIC>MOL_PROPERTY
W
SciTegic.value.DoubleValue
-70.195

@<SCITEGIC>MOL_PROPERTY
W(PB)
SciTegic.value.DoubleValue
-76.173

@<SCITEGIC>MOL_PROPERTY
W(SA)
SciTegic.value.DoubleValue
5.979

@<SCITEGIC>MOL_PROPERTY
Valence
SciTegic.value.DoubleValue
159.360

@<SCITEGIC>MOL_PROPERTY
Coulomb
SciTegic.value.DoubleValue
127.072

@<SCITEGIC>MOL_PROPERTY
VdW
SciTegic.value.DoubleValue
-25.493

@<SCITEGIC>MOL_PROPERTY
VdW6
SciTegic.value.DoubleValue
-184.172

@<SCITEGIC>MOL_PROPERTY
VdW12
SciTegic.value.DoubleValue
158.679

@<SCITEGIC>MOL_PROPERTY
Bond
SciTegic.value.DoubleValue
4.995

@<SCITEGIC>MOL_PROPERTY
Angle
SciTegic.value.DoubleValue
15.216

@<SCITEGIC>MOL_PROPERTY
Pdih
SciTegic.value.DoubleValue
139.147

@<SCITEGIC>MOL_PROPERTY
Idih
SciTegic.value.DoubleValue
0.002

@<SCITEGIC>MOL_PROPERTY
Tether
SciTegic.value.DoubleValue
0.000

@<TRIPOS>MOLECULE
CD_guest-s20_fast_vm2_rndm.mol2 : feprocess host+ligand conformer 3
         143         148           2
SMALL
USER_CHARGES
 
@<TRIPOS>ATOM
       1    C1      16.387330   15.367866   19.922499 C.3        1 MOL1         0.2972
       2    H1      15.408638   15.346066   19.426428 H          1 MOL1         0.0751
       3    O1      16.646908   16.656733   20.518685 O.3        1 MOL1        -0.3740
       4    C2      16.504291   14.244966   20.985474 C.3        1 MOL1         0.1003
       5    H2      16.434910   13.291874   20.445120 H          1 MOL1         0.0783
       6    O2      15.442318   14.300996   21.949748 O.3        1 MOL1        -0.5519
       7    H3      15.573915   15.135838   22.466301 H          1 MOL1         0.3769
       8    C3      17.884866   14.285363   21.687303 C.3        1 MOL1         0.1053
       9    H4      17.922753   15.182321   22.320978 H          1 MOL1         0.0783
      10    O3      18.015086   13.110289   22.494648 O.3        1 MOL1        -0.5519
      11    H5      17.214355   13.094412   23.062413 H          1 MOL1         0.3769
      12    C4      19.064882   14.369232   20.677007 C.3        1 MOL1         0.1018
      13    H6      19.305989   13.359933   20.321376 H          1 MOL1         0.0783
      14    C5      18.782757   15.294271   19.458433 C.3        1 MOL1         0.1043
      15    H7      18.895550   16.328367   19.799368 H          1 MOL1         0.0783
      16    O4      17.433241   15.112354   18.963250 O.3        1 MOL1        -0.3740
      17    C6      19.773830   15.111707   18.282669 C.3        1 MOL1         0.0138
      18    H8      20.739554   15.547562   18.567475 H          1 MOL1         0.0794
      19    H9      19.402876   15.689733   17.425879 H          1 MOL1         0.0794
      20    O5      19.951528   13.739571   17.909216 O.3        1 MOL1        -0.5486
      21    H10     20.489193   13.308906   18.607782 H          1 MOL1         0.3769
      22    C7      14.900818   20.097018   22.016235 C.3        1 MOL1         0.2972
      23    H11     14.229314   20.873514   22.404964 H          1 MOL1         0.0751
      24    O6      16.224332   20.608919   21.777365 O.3        1 MOL1        -0.3740
      25    C8      15.022838   18.941391   23.037815 C.3        1 MOL1         0.1003
      26    H12     14.027525   18.496515   23.163422 H          1 MOL1         0.0783
      27    O7      15.470907   19.459056   24.301656 O.3        1 MOL1        -0.5519
      28    H13     15.906449   20.325719   24.119285 H          1 MOL1         0.3769
      29    C9      15.970910   17.843185   22.491205 C.3        1 MOL1         0.1053
      30    H14     16.976085   18.271821   22.395901 H          1 MOL1         0.0783
      31    O8      16.015416   16.725716   23.385197 O.3        1 MOL1        -0.5519
      32    H15     16.889042   16.818299   23.853764 H          1 MOL1         0.3769
      33    C10     15.531859   17.378233   21.079346 C.3        1 MOL1         0.1018
      34    H16     14.634346   16.752446   21.169064 H          1 MOL1         0.0783
      35    C11     15.254634   18.576604   20.128179 C.3        1 MOL1         0.1043
      36    H17     16.221724   19.037976   19.891163 H          1 MOL1         0.0783
      37    O9      14.403168   19.561221   20.771956 O.3        1 MOL1        -0.3740
      38    C12     14.603059   18.164974   18.786787 C.3        1 MOL1         0.0138
      39    H18     15.349470   17.623716   18.189663 H          1 MOL1         0.0794
      40    H19     14.338545   19.074898   18.231501 H          1 MOL1         0.0794
      41    O10     13.445148   17.342719   18.978708 O.3        1 MOL1        -0.5486
      42    H20     13.041122   17.186239   18.097458 H          1 MOL1         0.3769
      43    C13     18.403293   24.134202   21.599741 C.3        1 MOL1         0.2972
      44    H21     18.729147   25.177529   21.500567 H          1 MOL1         0.0751
      45    O11     19.523659   23.242200   21.758333 O.3        1 MOL1        -0.3740
      46    C14     17.518895   23.977429   22.861112 C.3        1 MOL1         0.1003
      47    H22     16.643855   24.629597   22.742527 H          1 MOL1         0.0783
      48    O12     18.254303   24.368262   24.031383 O.3        1 MOL1        -0.5519
      49    H23     19.197223   24.128720   23.861396 H          1 MOL1         0.3769
      50    C15     17.022175   22.518900   22.998675 C.3        1 MOL1         0.1053
      51    H24     17.895591   21.883283   23.191825 H          1 MOL1         0.0783
      52    O13     16.102424   22.422531   24.090020 O.3        1 MOL1        -0.5519
      53    H25     16.516181   22.937811   24.818287 H          1 MOL1         0.3769
      54    C16     16.353756   22.035966   21.688904 C.3        1 MOL1         0.1018
      55    H26     15.382971   22.535904   21.575450 H          1 MOL1         0.0783
      56    C17     17.234097   22.325004   20.445130 C.3        1 MOL1         0.1043
      57    H27     18.127638   21.691866   20.518685 H          1 MOL1         0.0783
      58    O14     17.637311   23.718539   20.446415 O.3        1 MOL1        -0.3740
      59    C18     16.550616   21.996475   19.090691 C.3        1 MOL1         0.0138
      60    H28     16.754009   20.947321   18.843778 H          1 MOL1         0.0794
      61    H29     17.017378   22.604214   18.304153 H          1 MOL1         0.0794
      62    O15     15.134128   22.210993   19.102868 O.3        1 MOL1        -0.5486
      63    H30     14.736189   21.482482   19.632713 H          1 MOL1         0.3769
      64    C19     23.521881   22.710869   20.747507 C.3        1 MOL1         0.2972
      65    H31     24.544558   22.824340   20.365328 H          1 MOL1         0.0751
      66    O16     23.276886   21.375514   21.234391 O.3        1 MOL1        -0.3740
      67    C20     23.253307   23.702325   21.908194 C.3        1 MOL1         0.1003
      68    H32     23.386969   24.716801   21.510685 H          1 MOL1         0.0783
      69    O17     24.173999   23.497328   22.991636 O.3        1 MOL1        -0.5519
      70    H33     24.193178   22.525366   23.185327 H          1 MOL1         0.3769
      71    C21     21.792463   23.573146   22.404403 C.3        1 MOL1         0.1053
      72    H34     21.673807   22.581930   22.863836 H          1 MOL1         0.0783
      73    O18     21.523121   24.590387   23.375420 O.3        1 MOL1        -0.5519
      74    H35     22.299462   24.580708   23.978320 H          1 MOL1         0.3769
      75    C22     20.786683   23.686566   21.230838 C.3        1 MOL1         0.1018
      76    H36     20.753986   24.734254   20.904584 H          1 MOL1         0.0783
      77    C23     21.178851   22.774057   20.032159 C.3        1 MOL1         0.1043
      78    H37     21.043337   21.731124   20.339327 H          1 MOL1         0.0783
      79    O19     22.570471   22.995444   19.700309 O.3        1 MOL1        -0.3740
      80    C24     20.346492   22.975742   18.739762 C.3        1 MOL1         0.0138
      81    H38     19.479829   22.306799   18.773369 H          1 MOL1         0.0794
      82    H39     20.953572   22.657600   17.881713 H          1 MOL1         0.0794
      83    O20     19.903276   24.324282   18.553040 O.3        1 MOL1        -0.5486
      84    H40     19.087233   24.428969   19.094266 H          1 MOL1         0.3769
      85    C25     25.022411   17.631795   21.508700 C.3        1 MOL1         0.2972
      86    H41     25.683745   16.755836   21.519407 H          1 MOL1         0.0751
      87    O21     23.630407   17.247372   21.523844 O.3        1 MOL1        -0.3740
      88    C26     25.313799   18.571829   22.707783 C.3        1 MOL1         0.1003
      89    H42     26.332230   18.958578   22.571568 H          1 MOL1         0.0783
      90    O22     25.255149   17.882364   23.964257 O.3        1 MOL1        -0.5519
      91    H43     24.343857   17.502461   24.047230 H          1 MOL1         0.3769
      92    C27     24.345548   19.780003   22.683148 C.3        1 MOL1         0.1053
      93    H44     23.319252   19.412048   22.825755 H          1 MOL1         0.0783
      94    O23     24.689920   20.686870   23.736117 O.3        1 MOL1        -0.5519
      95    H45     24.820812   20.119039   24.528121 H          1 MOL1         0.3769
      96    C28     24.425131   20.508843   21.317806 C.3        1 MOL1         0.1018
      97    H46     25.365879   21.074650   21.292180 H          1 MOL1         0.0783
      98    C29     24.365793   19.532396   20.106835 C.3        1 MOL1         0.1043
      99    H47     23.340454   19.155404   20.021233 H          1 MOL1         0.0783
     100    O24     25.257053   18.407626   20.314390 O.3        1 MOL1        -0.3740
     101    C30     24.723480   20.198735   18.756724 C.3        1 MOL1         0.0138
     102    H48     23.904112   20.873153   18.473440 H          1 MOL1         0.0794
     103    H49     24.783425   19.418306   17.986424 H          1 MOL1         0.0794
     104    O25     25.954710   20.929993   18.823029 O.3        1 MOL1        -0.5486
     105    H50     26.148625   21.267914   17.921580 H          1 MOL1         0.3769
     106    C31     21.040199   14.079535   22.103889 C.3        1 MOL1         0.2972
     107    H51     20.541325   13.130845   22.337747 H          1 MOL1         0.0751
     108    O26     20.179782   14.968528   21.365134 O.3        1 MOL1        -0.3740
     109    C32     21.494161   14.777016   23.409591 C.3        1 MOL1         0.1003
     110    H52     22.258744   14.131402   23.860234 H          1 MOL1         0.0783
     111    O27     20.409106   14.899161   24.343357 O.3        1 MOL1        -0.5519
     112    H53     19.874127   15.706355   24.116309 H          1 MOL1         0.3769
     113    C33     22.164751   16.136766   23.090370 C.3        1 MOL1         0.1053
     114    H54     21.414357   16.803648   22.645054 H          1 MOL1         0.0783
     115    O28     22.678370   16.718229   24.292840 O.3        1 MOL1        -0.5519
     116    H55     21.879930   17.042154   24.792666 H          1 MOL1         0.3769
     117    C34     23.318244   15.948187   22.068908 C.3        1 MOL1         0.1018
     118    H56     24.176173   15.507705   22.594060 H          1 MOL1         0.0783
     119    C35     22.918009   15.047933   20.863661 C.3        1 MOL1         0.1043
     120    H57     22.244820   15.631781   20.224139 H          1 MOL1         0.0783
     121    O29     22.224869   13.852664   21.310131 O.3        1 MOL1        -0.3740
     122    C36     24.120886   14.620690   19.988952 C.3        1 MOL1         0.0138
     123    H58     24.490213   15.504017   19.450341 H          1 MOL1         0.0794
     124    H59     23.769163   13.902753   19.235997 H          1 MOL1         0.0794
     125    O30     25.180006   14.048921   20.767224 O.3        1 MOL1        -0.5486
     126    H60     25.871686   13.735694   20.144300 H          1 MOL1         0.3769
     127    C1      19.445311   18.071334   24.386969 C.2        1 MOL1         0.6132
     128    O1      20.351492   17.941029   25.186295 O.co2      1 MOL1        -0.6749
     129    O2      18.713958   17.155463   24.057652 O.co2      1 MOL1        -0.6749
     130    C2      19.261280   19.438129   23.734105 C.3        1 MOL1        -0.1955
     131    H1      19.722143   20.178751   24.397936 H          1 MOL1         0.0733
     132    H2      18.193824   19.673094   23.713910 H          1 MOL1         0.0733
     133    C3      19.865501   19.564885   22.344890 C.2        1 MOL1        -0.1395
     134    H3      20.453949   20.465026   22.180601 H          1 MOL1         0.0816
     135    C4      19.747377   18.651421   21.375764 C.2        1 MOL1        -0.1394
     136    H4      19.170138   17.744084   21.544790 H          1 MOL1         0.0816
     137    C5      20.397155   18.758773   20.014669 C.3        1 MOL1        -0.1826
     138    H5      21.173286   19.531539   20.026976 H          1 MOL1         0.0736
     139    H6      20.901249   17.813873   19.774650 H          1 MOL1         0.0736
     140    C6      19.368614   19.093742   18.917131 C.3        1 MOL1        -0.2882
     141    H7      18.907506   20.066391   19.110264 H          1 MOL1         0.0749
     142    H8      19.850683   19.133935   17.932176 H          1 MOL1         0.0749
     143    H9      18.568743   18.344228   18.877095 H          1 MOL1         0.0749
@<TRIPOS>BOND
    1     1     2    1
    2     1     3    1
    3     1     4    1
    4     4     5    1
    5     4     6    1
    6     6     7    1
    7     4     8    1
    8     8     9    1
    9     8    10    1
   10    10    11    1
   11     8    12    1
   12    12    13    1
   13    12    14    1
   14    14    15    1
   15     1    16    1
   16    14    16    1
   17    14    17    1
   18    17    18    1
   19    17    19    1
   20    17    20    1
   21    20    21    1
   22    22    23    1
   23    22    24    1
   24    22    25    1
   25    25    26    1
   26    25    27    1
   27    27    28    1
   28    25    29    1
   29    29    30    1
   30    29    31    1
   31    31    32    1
   32     3    33    1
   33    29    33    1
   34    33    34    1
   35    33    35    1
   36    35    36    1
   37    22    37    1
   38    35    37    1
   39    35    38    1
   40    38    39    1
   41    38    40    1
   42    38    41    1
   43    41    42    1
   44    43    44    1
   45    43    45    1
   46    43    46    1
   47    46    47    1
   48    46    48    1
   49    48    49    1
   50    46    50    1
   51    50    51    1
   52    50    52    1
   53    52    53    1
   54    24    54    1
   55    50    54    1
   56    54    55    1
   57    54    56    1
   58    56    57    1
   59    43    58    1
   60    56    58    1
   61    56    59    1
   62    59    60    1
   63    59    61    1
   64    59    62    1
   65    62    63    1
   66    64    65    1
   67    64    66    1
   68    64    67    1
   69    67    68    1
   70    67    69    1
   71    69    70    1
   72    67    71    1
   73    71    72    1
   74    71    73    1
   75    73    74    1
   76    45    75    1
   77    71    75    1
   78    75    76    1
   79    75    77    1
   80    77    78    1
   81    64    79    1
   82    77    79    1
   83    77    80    1
   84    80    81    1
   85    80    82    1
   86    80    83    1
   87    83    84    1
   88    85    86    1
   89    85    87    1
   90    85    88    1
   91    88    89    1
   92    88    90    1
   93    90    91    1
   94    88    92    1
   95    92    93    1
   96    92    94    1
   97    94    95    1
   98    66    96    1
   99    92    96    1
  100    96    97    1
  101    96    98    1
  102    98    99    1
  103    85   100    1
  104    98   100    1
  105    98   101    1
  106   101   102    1
  107   101   103    1
  108   101   104    1
  109   104   105    1
  110   106   107    1
  111    12   108    1
  112   106   108    1
  113   106   109    1
  114   109   110    1
  115   109   111    1
  116   111   112    1
  117   109   113    1
  118   113   114    1
  119   113   115    1
  120   115   116    1
  121    87   117    1
  122   113   117    1
  123   117   118    1
  124   117   119    1
  125   119   120    1
  126   106   121    1
  127   119   121    1
  128   119   122    1
  129   122   123    1
  130   122   124    1
  131   122   125    1
  132   125   126    1
  133   127   128    1
  134   127   129    2
  135   127   130    1
  136   130   131    1
  137   130   132    1
  138   130   133    1
  139   133   134    1
  140   133   135    2
  141   135   136    1
  142   135   137    1
  143   137   138    1
  144   137   139    1
  145   137   140    1
  146   140   141    1
  147   140   142    1
  148   140   143    1
@<TRIPOS>SUBSTRUCTURE
       1 MOL1            1 RESIDUE      1      MOL     
       2 MOL1          143 RESIDUE      1      MOL     
@<SCITEGIC>MOL_PROPERTY
feprocess Rank
SciTegic.value.IntegerValue
3

@<SCITEGIC>MOL_PROPERTY
Conf_Id
SciTegic.value.IntegerValue
816

@<SCITEGIC>MOL_PROPERTY
Probability
SciTegic.value.DoubleValue
4.01

@<SCITEGIC>MOL_PROPERTY
G
SciTegic.value.DoubleValue
499.531

@<SCITEGIC>MOL_PROPERTY
E
SciTegic.value.DoubleValue
315.989

@<SCITEGIC>MOL_PROPERTY
-TS
SciTegic.value.DoubleValue
183.542

@<SCITEGIC>MOL_PROPERTY
U+W
SciTegic.value.DoubleValue
189.900

@<SCITEGIC>MOL_PROPERTY
U
SciTegic.value.DoubleValue
263.547

@<SCITEGIC>MOL_PROPERTY
W
SciTegic.value.DoubleValue
-73.647

@<SCITEGIC>MOL_PROPERTY
W(PB)
SciTegic.value.DoubleValue
-79.585

@<SCITEGIC>MOL_PROPERTY
W(SA)
SciTegic.value.DoubleValue
5.938

@<SCITEGIC>MOL_PROPERTY
Valence
SciTegic.value.DoubleValue
161.303

@<SCITEGIC>MOL_PROPERTY
Coulomb
SciTegic.value.DoubleValue
127.611

@<SCITEGIC>MOL_PROPERTY
VdW
SciTegic.value.DoubleValue
-25.366

@<SCITEGIC>MOL_PROPERTY
VdW6
SciTegic.value.DoubleValue
-185.258

@<SCITEGIC>MOL_PROPERTY
VdW12
SciTegic.value.DoubleValue
159.892

@<SCITEGIC>MOL_PROPERTY
Bond
SciTegic.value.DoubleValue
5.038

@<SCITEGIC>MOL_PROPERTY
Angle
SciTegic.value.DoubleValue
14.570

@<SCITEGIC>MOL_PROPERTY
Pdih
SciTegic.value.DoubleValue
141.687

@<SCITEGIC>MOL_PROPERTY
Idih
SciTegic.value.DoubleValue
0.008

@<SCITEGIC>MOL_PROPERTY
Tether
SciTegic.value.DoubleValue
0.000

@<TRIPOS>MOLECULE
CD_guest-s20_fast_vm2_rndm.mol2 : feprocess host+ligand conformer 4
         143         148           2
SMALL
USER_CHARGES
 
@<TRIPOS>ATOM
       1    C1      16.281951   15.299590   20.352093 C.3        1 MOL1         0.2972
       2    H1      15.275088   15.236447   19.919964 H          1 MOL1         0.0751
       3    O1      16.567143   16.629089   20.837439 O.3        1 MOL1        -0.3740
       4    C2      16.477381   14.259978   21.490609 C.3        1 MOL1         0.1003
       5    H2      16.389224   13.264850   21.035560 H          1 MOL1         0.0783
       6    O2      15.483601   14.383238   22.518156 O.3        1 MOL1        -0.5519
       7    H3      15.615780   15.269379   22.940630 H          1 MOL1         0.3769
       8    C3      17.900589   14.384539   22.085362 C.3        1 MOL1         0.1053
       9    H4      17.980077   15.368900   22.563262 H          1 MOL1         0.0783
      10    O3      18.116939   13.357135   23.058052 O.3        1 MOL1        -0.5519
      11    H5      17.292176   13.329297   23.591787 H          1 MOL1         0.3769
      12    C4      18.976213   14.294933   20.973525 C.3        1 MOL1         0.1018
      13    H6      19.044863   13.251592   20.638941 H          1 MOL1         0.0783
      14    C5      18.654678   15.206408   19.754891 C.3        1 MOL1         0.1043
      15    H7      18.783455   16.249446   20.068285 H          1 MOL1         0.0783
      16    O4      17.277280   14.996545   19.347464 O.3        1 MOL1        -0.3740
      17    C6      19.577547   15.001905   18.524224 C.3        1 MOL1         0.0138
      18    H8      20.411519   15.711022   18.594303 H          1 MOL1         0.0794
      19    H9      19.015762   15.267444   17.618759 H          1 MOL1         0.0794
      20    O5      20.091661   13.669372   18.409005 O.3        1 MOL1        -0.5486
      21    H10     20.783443   13.565061   19.103520 H          1 MOL1         0.3769
      22    C7      15.081588   20.241368   22.087749 C.3        1 MOL1         0.2972
      23    H11     14.495408   21.096032   22.448084 H          1 MOL1         0.0751
      24    O6      16.385053   20.659766   21.632370 O.3        1 MOL1        -0.3740
      25    C8      15.238345   19.202354   23.227870 C.3        1 MOL1         0.1003
      26    H12     14.231163   18.860651   23.498851 H          1 MOL1         0.0783
      27    O7      15.846379   19.821830   24.374076 O.3        1 MOL1        -0.5519
      28    H13     16.283095   19.122059   24.923590 H          1 MOL1         0.3769
      29    C9      16.039625   17.967374   22.747723 C.3        1 MOL1         0.1053
      30    H14     17.079464   18.282014   22.588171 H          1 MOL1         0.0783
      31    O8      15.979680   16.930591   23.736209 O.3        1 MOL1        -0.5519
      32    H15     16.494330   17.248952   24.522516 H          1 MOL1         0.3769
      33    C10     15.492200   17.400402   21.410242 C.3        1 MOL1         0.1018
      34    H16     14.606053   16.786582   21.618238 H          1 MOL1         0.0783
      35    C11     15.143746   18.499664   20.369281 C.3        1 MOL1         0.1043
      36    H17     16.092995   18.877882   19.976499 H          1 MOL1         0.0783
      37    O9      14.416232   19.596175   20.980063 O.3        1 MOL1        -0.3740
      38    C12     14.328891   17.975242   19.162582 C.3        1 MOL1         0.0138
      39    H18     14.982386   17.337220   18.552440 H          1 MOL1         0.0794
      40    H19     14.034127   18.829365   18.538333 H          1 MOL1         0.0794
      41    O10     13.172267   17.235335   19.571856 O.3        1 MOL1        -0.5486
      42    H20     12.664936   17.003066   18.763635 H          1 MOL1         0.3769
      43    C13     18.532758   24.024551   20.596346 C.3        1 MOL1         0.2972
      44    H21     18.936361   24.963501   20.195841 H          1 MOL1         0.0751
      45    O11     19.556433   23.213460   21.201260 O.3        1 MOL1        -0.3740
      46    C14     17.451978   24.291704   21.670780 C.3        1 MOL1         0.1003
      47    H22     16.640061   24.846836   21.183207 H          1 MOL1         0.0783
      48    O12     17.980951   25.081210   22.748902 O.3        1 MOL1        -0.5519
      49    H23     18.808857   24.635711   23.061845 H          1 MOL1         0.3769
      50    C15     16.863349   22.963004   22.212092 C.3        1 MOL1         0.1053
      51    H24     17.632072   22.469091   22.823061 H          1 MOL1         0.0783
      52    O13     15.724275   23.275956   23.020475 O.3        1 MOL1        -0.5519
      53    H25     16.036242   23.957018   23.655535 H          1 MOL1         0.3769
      54    C16     16.458016   21.986029   21.071160 C.3        1 MOL1         0.1018
      55    H26     15.489830   22.308912   20.667978 H          1 MOL1         0.0783
      56    C17     17.498679   21.920096   19.915021 C.3        1 MOL1         0.1043
      57    H27     18.373829   21.365088   20.271981 H          1 MOL1         0.0783
      58    O14     17.908747   23.257818   19.544989 O.3        1 MOL1        -0.3740
      59    C18     17.008699   21.184084   18.640684 C.3        1 MOL1         0.0138
      60    H28     17.269782   20.122712   18.732950 H          1 MOL1         0.0794
      61    H29     17.569338   21.567621   17.777806 H          1 MOL1         0.0794
      62    O15     15.600197   21.320779   18.409603 O.3        1 MOL1        -0.5486
      63    H30     15.134880   20.899330   19.166984 H          1 MOL1         0.3769
      64    C19     23.575264   22.839798   21.876759 C.3        1 MOL1         0.2972
      65    H31     24.655944   22.946106   22.037580 H          1 MOL1         0.0751
      66    O16     23.181940   21.456302   21.805823 O.3        1 MOL1        -0.3740
      67    C20     22.802559   23.499314   23.043129 C.3        1 MOL1         0.1003
      68    H32     23.048148   24.569267   23.043008 H          1 MOL1         0.0783
      69    O17     23.199597   22.918599   24.295500 O.3        1 MOL1        -0.5519
      70    H33     23.553462   22.018681   24.091003 H          1 MOL1         0.3769
      71    C21     21.276928   23.355917   22.837424 C.3        1 MOL1         0.1053
      72    H34     21.021794   22.293497   22.941760 H          1 MOL1         0.0783
      73    O18     20.585053   24.112683   23.836375 O.3        1 MOL1        -0.5519
      74    H35     21.021601   23.870619   24.683505 H          1 MOL1         0.3769
      75    C22     20.837810   23.824973   21.427389 C.3        1 MOL1         0.1018
      76    H36     20.782201   24.921644   21.422285 H          1 MOL1         0.0783
      77    C23     21.773263   23.321464   20.291436 C.3        1 MOL1         0.1043
      78    H37     21.561565   22.254914   20.149098 H          1 MOL1         0.0783
      79    O19     23.170361   23.482379   20.650816 O.3        1 MOL1        -0.3740
      80    C24     21.532863   24.019387   18.931530 C.3        1 MOL1         0.0138
      81    H38     20.567499   23.681300   18.531286 H          1 MOL1         0.0794
      82    H39     22.309353   23.692420   18.226858 H          1 MOL1         0.0794
      83    O20     21.536744   25.447313   19.050521 O.3        1 MOL1        -0.5486
      84    H40     21.455291   25.821990   18.146353 H          1 MOL1         0.3769
      85    C25     24.854039   17.664583   21.201902 C.3        1 MOL1         0.2972
      86    H41     25.532474   16.848817   20.920562 H          1 MOL1         0.0751
      87    O21     23.559136   17.171009   21.590229 O.3        1 MOL1        -0.3740
      88    C26     25.426179   18.476376   22.394962 C.3        1 MOL1         0.1003
      89    H42     26.401954   18.871356   22.083842 H          1 MOL1         0.0783
      90    O22     25.603961   17.641785   23.550949 O.3        1 MOL1        -0.5519
      91    H43     24.765512   17.128491   23.677399 H          1 MOL1         0.3769
      92    C27     24.510489   19.680332   22.733277 C.3        1 MOL1         0.1053
      93    H44     23.555400   19.291458   23.114174 H          1 MOL1         0.0783
      94    O23     25.135208   20.496165   23.730283 O.3        1 MOL1        -0.5519
      95    H45     25.468377   19.863970   24.405551 H          1 MOL1         0.3769
      96    C28     24.219616   20.520840   21.465910 C.3        1 MOL1         0.1018
      97    H46     25.143723   21.026643   21.156136 H          1 MOL1         0.0783
      98    C29     23.712093   19.632121   20.298040 C.3        1 MOL1         0.1043
      99    H47     22.741742   19.204317   20.581860 H          1 MOL1         0.0783
     100    O24     24.668445   18.565183   20.087066 O.3        1 MOL1        -0.3740
     101    C30     23.504221   20.375550   18.952862 C.3        1 MOL1         0.0138
     102    H48     22.470718   20.740009   18.912693 H          1 MOL1         0.0794
     103    H49     23.612438   19.651540   18.134330 H          1 MOL1         0.0794
     104    O25     24.410227   21.469507   18.762140 O.3        1 MOL1        -0.5486
     105    H50     24.130599   22.189729   19.374528 H          1 MOL1         0.3769
     106    C31     21.235679   13.774420   21.738042 C.3        1 MOL1         0.2972
     107    H51     20.819399   12.759848   21.786746 H          1 MOL1         0.0751
     108    O26     20.205510   14.761628   21.554618 O.3        1 MOL1        -0.3740
     109    C32     21.976780   14.102711   23.055541 C.3        1 MOL1         0.1003
     110    H52     22.802583   13.387200   23.160931 H          1 MOL1         0.0783
     111    O27     21.085113   13.969077   24.173342 O.3        1 MOL1        -0.5519
     112    H53     20.175258   14.130612   23.827430 H          1 MOL1         0.3769
     113    C33     22.578138   15.526556   23.005771 C.3        1 MOL1         0.1053
     114    H54     21.752019   16.247960   22.992101 H          1 MOL1         0.0783
     115    O28     23.386603   15.743835   24.166838 O.3        1 MOL1        -0.5519
     116    H55     22.829338   15.447190   24.920196 H          1 MOL1         0.3769
     117    C34     23.423489   15.744533   21.727821 C.3        1 MOL1         0.1018
     118    H56     24.392982   15.246747   21.862471 H          1 MOL1         0.0783
     119    C35     22.722575   15.224802   20.439630 C.3        1 MOL1         0.1043
     120    H57     21.906105   15.920097   20.208792 H          1 MOL1         0.0783
     121    O29     22.171247   13.897627   20.646940 O.3        1 MOL1        -0.3740
     122    C36     23.649544   15.178522   19.201414 C.3        1 MOL1         0.0138
     123    H58     23.856699   16.208349   18.880895 H          1 MOL1         0.0794
     124    H59     23.113537   14.684304   18.379973 H          1 MOL1         0.0794
     125    O30     24.880259   14.497184   19.474566 O.3        1 MOL1        -0.5486
     126    H60     25.383530   14.442380   18.633064 H          1 MOL1         0.3769
     127    C1      18.587460   17.797038   25.990157 C.2        1 MOL1         0.6132
     128    O1      17.391860   17.995102   25.872903 O.co2      1 MOL1        -0.6749
     129    O2      19.257460   18.219451   26.911928 O.co2      1 MOL1        -0.6749
     130    C2      19.269110   16.934813   24.932490 C.3        1 MOL1        -0.1955
     131    H1      18.617679   16.071647   24.757989 H          1 MOL1         0.0733
     132    H2      20.200879   16.531636   25.345335 H          1 MOL1         0.0733
     133    C3      19.543988   17.639710   23.613874 C.2        1 MOL1        -0.1395
     134    H3      19.554721   16.984871   22.748390 H          1 MOL1         0.0816
     135    C4      19.743104   18.955175   23.468481 C.2        1 MOL1        -0.1394
     136    H4      19.725576   19.604184   24.343128 H          1 MOL1         0.0816
     137    C5      20.002772   19.688439   22.165507 C.3        1 MOL1        -0.1826
     138    H5      19.342937   20.563596   22.128695 H          1 MOL1         0.0736
     139    H6      21.023438   20.084777   22.181621 H          1 MOL1         0.0736
     140    C6      19.800553   18.853101   20.882204 C.3        1 MOL1        -0.2882
     141    H7      18.768984   18.484501   20.820230 H          1 MOL1         0.0749
     142    H8      19.997449   19.462406   19.991571 H          1 MOL1         0.0749
     143    H9      20.483408   17.994141   20.861081 H          1 MOL1         0.0749
@<TRIPOS>BOND
    1     1     2    1
    2     1     3    1
    3     1     4    1
    4     4     5    1
    5     4     6    1
    6     6     7    1
    7     4     8    1
    8     8     9    1
    9     8    10    1
   10    10    11    1
   11     8    12    1
   12    12    13    1
   13    12    14    1
   14    14    15    1
   15     1    16    1
   16    14    16    1
   17    14    17    1
   18    17    18    1
   19    17    19    1
   20    17    20    1
   21    20    21    1
   22    22    23    1
   23    22    24    1
   24    22    25    1
   25    25    26    1
   26    25    27    1
   27    27    28    1
   28    25    29    1
   29    29    30    1
   30    29    31    1
   31    31    32    1
   32     3    33    1
   33    29    33    1
   34    33    34    1
   35    33    35    1
   36    35    36    1
   37    22    37    1
   38    35    37    1
   39    35    38    1
   40    38    39    1
   41    38    40    1
   42    38    41    1
   43    41    42    1
   44    43    44    1
   45    43    45    1
   46    43    46    1
   47    46    47    1
   48    46    48    1
   49    48    49    1
   50    46    50    1
   51    50    51    1
   52    50    52    1
   53    52    53    1
   54    24    54    1
   55    50    54    1
   56    54    55    1
   57    54    56    1
   58    56    57    1
   59    43    58    1
   60    56    58    1
   61    56    59    1
   62    59    60    1
   63    59    61    1
   64    59    62    1
   65    62    63    1
   66    64    65    1
   67    64    66    1
   68    64    67    1
   69    67    68    1
   70    67    69    1
   71    69    70    1
   72    67    71    1
   73    71    72    1
   74    71    73    1
   75    73    74    1
   76    45    75    1
   77    71    75    1
   78    75    76    1
   79    75    77    1
   80    77    78    1
   81    64    79    1
   82    77    79    1
   83    77    80    1
   84    80    81    1
   85    80    82    1
   86    80    83    1
   87    83    84    1
   88    85    86    1
   89    85    87    1
   90    85    88    1
   91    88    89    1
   92    88    90    1
   93    90    91    1
   94    88    92    1
   95    92    93    1
   96    92    94    1
   97    94    95    1
   98    66    96    1
   99    92    96    1
  100    96    97    1
  101    96    98    1
  102    98    99    1
  103    85   100    1
  104    98   100    1
  105    98   101    1
  106   101   102    1
  107   101   103    1
  108   101   104    1
  109   104   105    1
  110   106   107    1
  111    12   108    1
  112   106   108    1
  113   106   109    1
  114   109   110    1
  115   109   111    1
  116   111   112    1
  117   109   113    1
  118   113   114    1
  119   113   115    1
  120   115   116    1
  121    87   117    1
  122   113   117    1
  123   117   118    1
  124   117   119    1
  125   119   120    1
  126   106   121    1
  127   119   121    1
  128   119   122    1
  129   122   123    1
  130   122   124    1
  131   122   125    1
  132   125   126    1
  133   127   128    1
  134   127   129    2
  135   127   130    1
  136   130   131    1
  137   130   132    1
  138   130   133    1
  139   133   134    1
  140   133   135    2
  141   135   136    1
  142   135   137    1
  143   137   138    1
  144   137   139    1
  145   137   140    1
  146   140   141    1
  147   140   142    1
  148   140   143    1
@<TRIPOS>SUBSTRUCTURE
       1 MOL1            1 RESIDUE      1      MOL     
       2 MOL1          143 RESIDUE      1      MOL     
@<SCITEGIC>MOL_PROPERTY
feprocess Rank
SciTegic.value.IntegerValue
4

@<SCITEGIC>MOL_PROPERTY
Conf_Id
SciTegic.value.IntegerValue
967

@<SCITEGIC>MOL_PROPERTY
Probability
SciTegic.value.DoubleValue
2.16

@<SCITEGIC>MOL_PROPERTY
G
SciTegic.value.DoubleValue
499.899

@<SCITEGIC>MOL_PROPERTY
E
SciTegic.value.DoubleValue
318.587

@<SCITEGIC>MOL_PROPERTY
-TS
SciTegic.value.DoubleValue
181.312

@<SCITEGIC>MOL_PROPERTY
U+W
SciTegic.value.DoubleValue
192.499

@<SCITEGIC>MOL_PROPERTY
U
SciTegic.value.DoubleValue
273.410

@<SCITEGIC>MOL_PROPERTY
W
SciTegic.value.DoubleValue
-80.912

@<SCITEGIC>MOL_PROPERTY
W(PB)
SciTegic.value.DoubleValue
-86.984

@<SCITEGIC>MOL_PROPERTY
W(SA)
SciTegic.value.DoubleValue
6.072

@<SCITEGIC>MOL_PROPERTY
Valence
SciTegic.value.DoubleValue
158.816

@<SCITEGIC>MOL_PROPERTY
Coulomb
SciTegic.value.DoubleValue
137.603

@<SCITEGIC>MOL_PROPERTY
VdW
SciTegic.value.DoubleValue
-23.008

@<SCITEGIC>MOL_PROPERTY
VdW6
SciTegic.value.DoubleValue
-179.168

@<SCITEGIC>MOL_PROPERTY
VdW12
SciTegic.value.DoubleValue
156.159

@<SCITEGIC>MOL_PROPERTY
Bond
SciTegic.value.DoubleValue
4.822

@<SCITEGIC>MOL_PROPERTY
Angle
SciTegic.value.DoubleValue
14.840

@<SCITEGIC>MOL_PROPERTY
Pdih
SciTegic.value.DoubleValue
139.152

@<SCITEGIC>MOL_PROPERTY
Idih
SciTegic.value.DoubleValue
0.003

@<SCITEGIC>MOL_PROPERTY
Tether
SciTegic.value.DoubleValue
0.000

@<TRIPOS>MOLECULE
CD_guest-s20_fast_vm2_rndm.mol2 : feprocess host+ligand conformer 5
         143         148           2
SMALL
USER_CHARGES
 
@<TRIPOS>ATOM
       1    C1      16.740089   15.675302   22.462448 C.3        1 MOL1         0.2972
       2    H1      15.733167   15.654661   22.893176 H          1 MOL1         0.0751
       3    O1      17.056161   16.990443   21.950681 O.3        1 MOL1        -0.3740
       4    C2      17.762734   15.290483   23.561748 C.3        1 MOL1         0.1003
       5    H2      17.455276   14.313502   23.956221 H          1 MOL1         0.0783
       6    O2      17.729496   16.255451   24.623651 O.3        1 MOL1        -0.5519
       7    H3      18.017162   17.106072   24.228102 H          1 MOL1         0.3769
       8    C3      19.202465   15.141488   23.009589 C.3        1 MOL1         0.1053
       9    H4      19.596330   16.142448   22.795063 H          1 MOL1         0.0783
      10    O3      20.014637   14.491916   23.994398 O.3        1 MOL1        -0.5519
      11    H5      20.543520   15.186588   24.475086 H          1 MOL1         0.3769
      12    C4      19.256774   14.312983   21.698419 C.3        1 MOL1         0.1018
      13    H6      19.235596   13.244034   21.949126 H          1 MOL1         0.0783
      14    C5      18.109324   14.647453   20.710570 C.3        1 MOL1         0.1043
      15    H7      18.335464   15.626442   20.280481 H          1 MOL1         0.0783
      16    O4      16.833097   14.715783   21.388249 O.3        1 MOL1        -0.3740
      17    C6      17.994468   13.645819   19.535963 C.3        1 MOL1         0.0138
      18    H8      18.863389   13.781041   18.877635 H          1 MOL1         0.0794
      19    H9      17.099951   13.892016   18.948483 H          1 MOL1         0.0794
      20    O5      17.934244   12.287291   19.987402 O.3        1 MOL1        -0.5486
      21    H10     17.790877   11.717318   19.200530 H          1 MOL1         0.3769
      22    C7      14.952894   20.321200   20.463079 C.3        1 MOL1         0.2972
      23    H11     14.272169   20.967524   19.893959 H          1 MOL1         0.0751
      24    O6      15.861199   21.097295   21.267052 O.3        1 MOL1        -0.3740
      25    C8      14.149615   19.416642   21.428366 C.3        1 MOL1         0.1003
      26    H12     13.433992   18.845581   20.822520 H          1 MOL1         0.0783
      27    O7      13.434152   20.222820   22.377565 O.3        1 MOL1        -0.5519
      28    H13     14.069692   20.912759   22.681277 H          1 MOL1         0.3769
      29    C9      15.061855   18.405616   22.171885 C.3        1 MOL1         0.1053
      30    H14     15.683339   18.963228   22.885101 H          1 MOL1         0.0783
      31    O8      14.212827   17.494404   22.875755 O.3        1 MOL1        -0.5519
      32    H15     13.563895   18.060611   23.349249 H          1 MOL1         0.3769
      33    C10     16.010019   17.648867   21.195746 C.3        1 MOL1         0.1018
      34    H16     15.419511   16.923194   20.622171 H          1 MOL1         0.0783
      35    C11     16.703999   18.631586   20.210291 C.3        1 MOL1         0.1043
      36    H17     17.399130   19.263523   20.775732 H          1 MOL1         0.0783
      37    O9      15.704918   19.463798   19.581059 O.3        1 MOL1        -0.3740
      38    C12     17.523772   17.948171   19.089810 C.3        1 MOL1         0.0138
      39    H18     18.470958   17.595695   19.517295 H          1 MOL1         0.0794
      40    H19     17.780233   18.702775   18.334494 H          1 MOL1         0.0794
      41    O10     16.819286   16.860930   18.475932 O.3        1 MOL1        -0.5486
      42    H20     16.588827   16.221006   19.181697 H          1 MOL1         0.3769
      43    C13     18.395087   24.306104   20.893903 C.3        1 MOL1         0.2972
      44    H21     18.936571   25.242748   20.708418 H          1 MOL1         0.0751
      45    O11     19.279948   23.251804   21.321017 O.3        1 MOL1        -0.3740
      46    C14     17.280298   24.499305   21.949205 C.3        1 MOL1         0.1003
      47    H22     16.547688   25.198643   21.525533 H          1 MOL1         0.0783
      48    O12     17.795822   25.048080   23.171450 O.3        1 MOL1        -0.5519
      49    H23     18.494665   24.426575   23.498994 H          1 MOL1         0.3769
      50    C15     16.560809   23.155682   22.211412 C.3        1 MOL1         0.1053
      51    H24     17.278176   22.480303   22.697908 H          1 MOL1         0.0783
      52    O13     15.447725   23.381057   23.083814 O.3        1 MOL1        -0.5519
      53    H25     15.798952   23.943445   23.808993 H          1 MOL1         0.3769
      54    C16     16.072508   22.479154   20.900108 C.3        1 MOL1         0.1018
      55    H26     15.129082   22.957963   20.608202 H          1 MOL1         0.0783
      56    C17     17.104552   22.567955   19.725606 C.3        1 MOL1         0.1043
      57    H27     17.874326   21.801647   19.886958 H          1 MOL1         0.0783
      58    O14     17.738370   23.872086   19.690092 O.3        1 MOL1        -0.3740
      59    C18     16.505056   22.347114   18.312500 C.3        1 MOL1         0.0138
      60    H28     16.340308   21.277630   18.145821 H          1 MOL1         0.0794
      61    H29     17.248597   22.665852   17.569584 H          1 MOL1         0.0794
      62    O15     15.280742   23.067020   18.119908 O.3        1 MOL1        -0.5486
      63    H30     15.002574   22.936310   17.187099 H          1 MOL1         0.3769
      64    C19     23.133209   22.380460   22.525023 C.3        1 MOL1         0.2972
      65    H31     24.171276   22.419833   22.876776 H          1 MOL1         0.0751
      66    O16     22.771798   21.046057   22.109072 O.3        1 MOL1        -0.3740
      67    C20     22.184426   22.817520   23.666507 C.3        1 MOL1         0.1003
      68    H32     22.462929   23.838558   23.957815 H          1 MOL1         0.0783
      69    O17     22.320167   21.944862   24.797480 O.3        1 MOL1        -0.5519
      70    H33     22.274831   21.027093   24.443680 H          1 MOL1         0.3769
      71    C21     20.717441   22.835275   23.188897 C.3        1 MOL1         0.1053
      72    H34     20.426732   21.802531   22.973820 H          1 MOL1         0.0783
      73    O18     19.893073   23.367648   24.230137 O.3        1 MOL1        -0.5519
      74    H35     20.190299   22.907032   25.046313 H          1 MOL1         0.3769
      75    C22     20.542346   23.653447   21.888267 C.3        1 MOL1         0.1018
      76    H36     20.569467   24.723518   22.133710 H          1 MOL1         0.0783
      77    C23     21.621035   23.312846   20.824447 C.3        1 MOL1         0.1043
      78    H37     21.380264   22.319717   20.432182 H          1 MOL1         0.0783
      79    O19     22.948513   23.277994   21.407810 O.3        1 MOL1        -0.3740
      80    C24     21.633844   24.290916   19.625129 C.3        1 MOL1         0.0138
      81    H38     20.723872   24.126605   19.032068 H          1 MOL1         0.0794
      82    H39     22.489875   24.048730   18.981143 H          1 MOL1         0.0794
      83    O20     21.698326   25.658933   20.046763 O.3        1 MOL1        -0.5486
      84    H40     21.777834   26.215518   19.241464 H          1 MOL1         0.3769
      85    C25     24.859283   17.578686   20.882106 C.3        1 MOL1         0.2972
      86    H41     25.606411   16.944555   20.387893 H          1 MOL1         0.0751
      87    O21     23.829969   16.778420   21.495056 O.3        1 MOL1        -0.3740
      88    C26     25.544385   18.438618   21.978206 C.3        1 MOL1         0.1003
      89    H42     26.349113   18.997354   21.483262 H          1 MOL1         0.0783
      90    O22     26.117234   17.614390   23.004580 O.3        1 MOL1        -0.5519
      91    H43     25.354503   17.213935   23.505399 H          1 MOL1         0.3769
      92    C27     24.571623   19.469275   22.603755 C.3        1 MOL1         0.1053
      93    H44     23.814680   18.923778   23.179628 H          1 MOL1         0.0783
      94    O23     25.321468   20.331685   23.464819 O.3        1 MOL1        -0.5519
      95    H45     25.841858   19.728889   24.040054 H          1 MOL1         0.3769
      96    C28     23.837354   20.281592   21.505804 C.3        1 MOL1         0.1018
      97    H46     24.561562   20.936638   21.003910 H          1 MOL1         0.0783
      98    C29     23.205689   19.331696   20.455379 C.3        1 MOL1         0.1043
      99    H47     22.438209   18.720544   20.947580 H          1 MOL1         0.0783
     100    O24     24.245732   18.476088   19.930464 O.3        1 MOL1        -0.3740
     101    C30     22.528014   20.055978   19.266560 C.3        1 MOL1         0.0138
     102    H48     21.520332   20.359587   19.577066 H          1 MOL1         0.0794
     103    H49     22.403386   19.339945   18.443480 H          1 MOL1         0.0794
     104    O25     23.268987   21.198760   18.818166 O.3        1 MOL1        -0.5486
     105    H50     23.337670   21.820836   19.575867 H          1 MOL1         0.3769
     106    C31     21.371638   13.634720   20.614477 C.3        1 MOL1         0.2972
     107    H51     20.823728   12.735090   20.306121 H          1 MOL1         0.0751
     108    O26     20.472990   14.690781   21.020042 O.3        1 MOL1        -0.3740
     109    C32     22.391227   13.318063   21.735313 C.3        1 MOL1         0.1003
     110    H52     23.173468   12.686856   21.294319 H          1 MOL1         0.0783
     111    O27     21.776776   12.592755   22.810521 O.3        1 MOL1        -0.5519
     112    H53     21.247252   13.247961   23.328107 H          1 MOL1         0.3769
     113    C33     23.057758   14.636399   22.204029 C.3        1 MOL1         0.1053
     114    H54     22.280633   15.266962   22.654729 H          1 MOL1         0.0783
     115    O28     24.072641   14.370906   23.178178 O.3        1 MOL1        -0.5519
     116    H55     24.058647   15.157696   23.786679 H          1 MOL1         0.3769
     117    C34     23.682866   15.420941   21.014809 C.3        1 MOL1         0.1018
     118    H56     24.662296   14.971606   20.806912 H          1 MOL1         0.0783
     119    C35     22.808389   15.414558   19.713024 C.3        1 MOL1         0.1043
     120    H57     22.039550   16.191609   19.816809 H          1 MOL1         0.0783
     121    O29     22.154625   14.133439   19.516773 O.3        1 MOL1        -0.3740
     122    C36     23.589773   15.694241   18.402839 C.3        1 MOL1         0.0138
     123    H58     23.812086   16.763235   18.326221 H          1 MOL1         0.0794
     124    H59     22.935818   15.452029   17.554300 H          1 MOL1         0.0794
     125    O30     24.802462   14.934947   18.317896 O.3        1 MOL1        -0.5486
     126    H60     25.203006   15.111683   17.438785 H          1 MOL1         0.3769
     127    C1      22.826902   16.923315   25.061777 C.2        1 MOL1         0.6132
     128    O1      22.049682   15.992059   25.129734 O.co2      1 MOL1        -0.6749
     129    O2      23.959146   16.821715   24.625350 O.co2      1 MOL1        -0.6749
     130    C2      22.344793   18.293097   25.530260 C.3        1 MOL1        -0.1955
     131    H1      23.196754   18.981768   25.566891 H          1 MOL1         0.0733
     132    H2      22.013166   18.167059   26.566903 H          1 MOL1         0.0733
     133    C3      21.210499   18.897073   24.714970 C.2        1 MOL1        -0.1395
     134    H3      20.618929   19.631003   25.257626 H          1 MOL1         0.0816
     135    C4      20.899849   18.568790   23.453915 C.2        1 MOL1        -0.1394
     136    H4      21.494165   17.822662   22.928133 H          1 MOL1         0.0816
     137    C5      19.741242   19.121165   22.643143 C.3        1 MOL1        -0.1826
     138    H5      20.113903   19.859363   21.922052 H          1 MOL1         0.0736
     139    H6      19.328229   18.310125   22.032625 H          1 MOL1         0.0736
     140    C6      18.596766   19.726952   23.489159 C.3        1 MOL1        -0.2882
     141    H7      18.936960   20.583993   24.080994 H          1 MOL1         0.0749
     142    H8      17.785272   20.081208   22.845532 H          1 MOL1         0.0749
     143    H9      18.180909   18.986378   24.181314 H          1 MOL1         0.0749
@<TRIPOS>BOND
    1     1     2    1
    2     1     3    1
    3     1     4    1
    4     4     5    1
    5     4     6    1
    6     6     7    1
    7     4     8    1
    8     8     9    1
    9     8    10    1
   10    10    11    1
   11     8    12    1
   12    12    13    1
   13    12    14    1
   14    14    15    1
   15     1    16    1
   16    14    16    1
   17    14    17    1
   18    17    18    1
   19    17    19    1
   20    17    20    1
   21    20    21    1
   22    22    23    1
   23    22    24    1
   24    22    25    1
   25    25    26    1
   26    25    27    1
   27    27    28    1
   28    25    29    1
   29    29    30    1
   30    29    31    1
   31    31    32    1
   32     3    33    1
   33    29    33    1
   34    33    34    1
   35    33    35    1
   36    35    36    1
   37    22    37    1
   38    35    37    1
   39    35    38    1
   40    38    39    1
   41    38    40    1
   42    38    41    1
   43    41    42    1
   44    43    44    1
   45    43    45    1
   46    43    46    1
   47    46    47    1
   48    46    48    1
   49    48    49    1
   50    46    50    1
   51    50    51    1
   52    50    52    1
   53    52    53    1
   54    24    54    1
   55    50    54    1
   56    54    55    1
   57    54    56    1
   58    56    57    1
   59    43    58    1
   60    56    58    1
   61    56    59    1
   62    59    60    1
   63    59    61    1
   64    59    62    1
   65    62    63    1
   66    64    65    1
   67    64    66    1
   68    64    67    1
   69    67    68    1
   70    67    69    1
   71    69    70    1
   72    67    71    1
   73    71    72    1
   74    71    73    1
   75    73    74    1
   76    45    75    1
   77    71    75    1
   78    75    76    1
   79    75    77    1
   80    77    78    1
   81    64    79    1
   82    77    79    1
   83    77    80    1
   84    80    81    1
   85    80    82    1
   86    80    83    1
   87    83    84    1
   88    85    86    1
   89    85    87    1
   90    85    88    1
   91    88    89    1
   92    88    90    1
   93    90    91    1
   94    88    92    1
   95    92    93    1
   96    92    94    1
   97    94    95    1
   98    66    96    1
   99    92    96    1
  100    96    97    1
  101    96    98    1
  102    98    99    1
  103    85   100    1
  104    98   100    1
  105    98   101    1
  106   101   102    1
  107   101   103    1
  108   101   104    1
  109   104   105    1
  110   106   107    1
  111    12   108    1
  112   106   108    1
  113   106   109    1
  114   109   110    1
  115   109   111    1
  116   111   112    1
  117   109   113    1
  118   113   114    1
  119   113   115    1
  120   115   116    1
  121    87   117    1
  122   113   117    1
  123   117   118    1
  124   117   119    1
  125   119   120    1
  126   106   121    1
  127   119   121    1
  128   119   122    1
  129   122   123    1
  130   122   124    1
  131   122   125    1
  132   125   126    1
  133   127   128    1
  134   127   129    2
  135   127   130    1
  136   130   131    1
  137   130   132    1
  138   130   133    1
  139   133   134    1
  140   133   135    2
  141   135   136    1
  142   135   137    1
  143   137   138    1
  144   137   139    1
  145   137   140    1
  146   140   141    1
  147   140   142    1
  148   140   143    1
@<TRIPOS>SUBSTRUCTURE
       1 MOL1            1 RESIDUE      1      MOL     
       2 MOL1          143 RESIDUE      1      MOL     
@<SCITEGIC>MOL_PROPERTY
feprocess Rank
SciTegic.value.IntegerValue
5

@<SCITEGIC>MOL_PROPERTY
Conf_Id
SciTegic.value.IntegerValue
337

@<SCITEGIC>MOL_PROPERTY
Probability
SciTegic.value.DoubleValue
2.08

@<SCITEGIC>MOL_PROPERTY
G
SciTegic.value.DoubleValue
499.920

@<SCITEGIC>MOL_PROPERTY
E
SciTegic.value.DoubleValue
316.037

@<SCITEGIC>MOL_PROPERTY
-TS
SciTegic.value.DoubleValue
183.884

@<SCITEGIC>MOL_PROPERTY
U+W
SciTegic.value.DoubleValue
189.948

@<SCITEGIC>MOL_PROPERTY
U
SciTegic.value.DoubleValue
266.008

@<SCITEGIC>MOL_PROPERTY
W
SciTegic.value.DoubleValue
-76.060

@<SCITEGIC>MOL_PROPERTY
W(PB)
SciTegic.value.DoubleValue
-82.103

@<SCITEGIC>MOL_PROPERTY
W(SA)
SciTegic.value.DoubleValue
6.043

@<SCITEGIC>MOL_PROPERTY
Valence
SciTegic.value.DoubleValue
153.702

@<SCITEGIC>MOL_PROPERTY
Coulomb
SciTegic.value.DoubleValue
135.427

@<SCITEGIC>MOL_PROPERTY
VdW
SciTegic.value.DoubleValue
-23.120

@<SCITEGIC>MOL_PROPERTY
VdW6
SciTegic.value.DoubleValue
-182.497

@<SCITEGIC>MOL_PROPERTY
VdW12
SciTegic.value.DoubleValue
159.377

@<SCITEGIC>MOL_PROPERTY
Bond
SciTegic.value.DoubleValue
5.243

@<SCITEGIC>MOL_PROPERTY
Angle
SciTegic.value.DoubleValue
16.303

@<SCITEGIC>MOL_PROPERTY
Pdih
SciTegic.value.DoubleValue
132.153

@<SCITEGIC>MOL_PROPERTY
Idih
SciTegic.value.DoubleValue
0.004

@<SCITEGIC>MOL_PROPERTY
Tether
SciTegic.value.DoubleValue
0.000

@<TRIPOS>MOLECULE
CD_guest-s20_fast_vm2_rndm.mol2 : feprocess host+ligand conformer 6
         143         148           2
SMALL
USER_CHARGES
 
@<TRIPOS>ATOM
       1    C1      16.316325   15.180016   21.986490 C.3        1 MOL1         0.2972
       2    H1      15.300853   15.039482   22.378319 H          1 MOL1         0.0751
       3    O1      16.490059   16.493592   21.418610 O.3        1 MOL1        -0.3740
       4    C2      17.367694   14.975826   23.109117 C.3        1 MOL1         0.1003
       5    H2      17.266987   13.944168   23.469570 H          1 MOL1         0.0783
       6    O2      17.133362   15.881290   24.200621 O.3        1 MOL1        -0.5519
       7    H3      16.236922   16.271691   24.071548 H          1 MOL1         0.3769
       8    C3      18.800333   15.149785   22.546173 C.3        1 MOL1         0.1053
       9    H4      18.916621   16.198253   22.252203 H          1 MOL1         0.0783
      10    O3      19.779381   14.832058   23.541867 O.3        1 MOL1        -0.5519
      11    H5      20.130629   15.718898   23.825312 H          1 MOL1         0.3769
      12    C4      19.043934   14.295624   21.277326 C.3        1 MOL1         0.1018
      13    H6      19.215910   13.253304   21.573530 H          1 MOL1         0.0783
      14    C5      17.864580   14.369693   20.266278 C.3        1 MOL1         0.1043
      15    H7      17.894212   15.355461   19.784588 H          1 MOL1         0.0783
      16    O4      16.593797   14.214413   20.950027 O.3        1 MOL1        -0.3740
      17    C6      17.950272   13.313370   19.138873 C.3        1 MOL1         0.0138
      18    H8      18.777732   13.585885   18.469979 H          1 MOL1         0.0794
      19    H9      17.025664   13.356947   18.547821 H          1 MOL1         0.0794
      20    O5      18.153819   11.989639   19.648909 O.3        1 MOL1        -0.5486
      21    H10     18.121187   11.368703   18.888666 H          1 MOL1         0.3769
      22    C7      14.709764   20.236809   21.384440 C.3        1 MOL1         0.2972
      23    H11     14.025002   21.089464   21.291467 H          1 MOL1         0.0751
      24    O6      16.062255   20.669878   21.637001 O.3        1 MOL1        -0.3740
      25    C8      14.266806   19.344027   22.567163 C.3        1 MOL1         0.1003
      26    H12     13.245475   19.000925   22.356338 H          1 MOL1         0.0783
      27    O7      14.271762   20.101133   23.787680 O.3        1 MOL1        -0.5519
      28    H13     14.980480   20.783367   23.692684 H          1 MOL1         0.3769
      29    C9      15.171948   18.096002   22.702911 C.3        1 MOL1         0.1053
      30    H14     16.161884   18.435382   23.033379 H          1 MOL1         0.0783
      31    O8      14.602036   17.226509   23.686978 O.3        1 MOL1        -0.5519
      32    H15     14.307948   17.824812   24.411437 H          1 MOL1         0.3769
      33    C10     15.337368   17.354784   21.346932 C.3        1 MOL1         0.1018
      34    H16     14.423783   16.788410   21.126155 H          1 MOL1         0.0783
      35    C11     15.633985   18.332124   20.177778 C.3        1 MOL1         0.1043
      36    H17     16.645655   18.726774   20.328019 H          1 MOL1         0.0783
      37    O9      14.694490   19.434717   20.185696 O.3        1 MOL1        -0.3740
      38    C12     15.614959   17.663441   18.780704 C.3        1 MOL1         0.0138
      39    H18     16.523907   17.056658   18.672349 H          1 MOL1         0.0794
      40    H19     15.659091   18.449573   18.015418 H          1 MOL1         0.0794
      41    O10     14.458906   16.843169   18.574977 O.3        1 MOL1        -0.5486
      42    H20     14.574995   16.031286   19.113766 H          1 MOL1         0.3769
      43    C13     18.535880   23.994661   20.925147 C.3        1 MOL1         0.2972
      44    H21     18.886281   24.983951   20.603752 H          1 MOL1         0.0751
      45    O11     19.617733   23.178620   21.411428 O.3        1 MOL1        -0.3740
      46    C14     17.509026   24.132573   22.078963 C.3        1 MOL1         0.1003
      47    H22     16.691237   24.769660   21.717990 H          1 MOL1         0.0783
      48    O12     18.119547   24.747286   23.226076 O.3        1 MOL1        -0.5519
      49    H23     19.022507   24.352206   23.321891 H          1 MOL1         0.3769
      50    C15     16.909285   22.755696   22.461681 C.3        1 MOL1         0.1053
      51    H24     17.705445   22.149437   22.914966 H          1 MOL1         0.0783
      52    O13     15.844650   22.941287   23.401487 O.3        1 MOL1        -0.5519
      53    H25     16.200882   23.565109   24.072373 H          1 MOL1         0.3769
      54    C16     16.384903   22.008493   21.210933 C.3        1 MOL1         0.1018
      55    H26     15.503057   22.542545   20.833214 H          1 MOL1         0.0783
      56    C17     17.465355   21.955420   20.095146 C.3        1 MOL1         0.1043
      57    H27     18.312705   21.361715   20.457713 H          1 MOL1         0.0783
      58    O14     17.903853   23.307264   19.824738 O.3        1 MOL1        -0.3740
      59    C18     17.010497   21.330199   18.752912 C.3        1 MOL1         0.0138
      60    H28     17.162176   20.246570   18.804952 H          1 MOL1         0.0794
      61    H29     17.669580   21.700234   17.956374 H          1 MOL1         0.0794
      62    O15     15.644428   21.613959   18.430561 O.3        1 MOL1        -0.5486
      63    H30     15.095441   20.966824   18.931445 H          1 MOL1         0.3769
      64    C19     23.729689   22.819434   21.260381 C.3        1 MOL1         0.2972
      65    H31     24.816121   22.940784   21.162393 H          1 MOL1         0.0751
      66    O16     23.357722   21.425042   21.311756 O.3        1 MOL1        -0.3740
      67    C20     23.187108   23.575180   22.504194 C.3        1 MOL1         0.1003
      68    H32     23.358339   24.644829   22.325747 H          1 MOL1         0.0783
      69    O17     23.869131   23.203682   23.710240 O.3        1 MOL1        -0.5519
      70    H33     23.652576   22.252109   23.878914 H          1 MOL1         0.3769
      71    C21     21.659200   23.360575   22.634329 C.3        1 MOL1         0.1053
      72    H34     21.470488   22.295441   22.830386 H          1 MOL1         0.0783
      73    O18     21.147798   24.152605   23.712977 O.3        1 MOL1        -0.5519
      74    H35     21.757798   23.987533   24.465558 H          1 MOL1         0.3769
      75    C22     20.935829   23.752621   21.322573 C.3        1 MOL1         0.1018
      76    H36     20.901626   24.848932   21.272820 H          1 MOL1         0.0783
      77    C23     21.631233   23.186733   20.049484 C.3        1 MOL1         0.1043
      78    H37     21.431137   22.109690   20.008244 H          1 MOL1         0.0783
      79    O19     23.065266   23.397181   20.117944 O.3        1 MOL1        -0.3740
      80    C24     21.119919   23.803803   18.725399 C.3        1 MOL1         0.0138
      81    H38     20.115526   23.412323   18.519809 H          1 MOL1         0.0794
      82    H39     21.770742   23.464259   17.908546 H          1 MOL1         0.0794
      83    O20     21.085822   25.236127   18.772483 O.3        1 MOL1        -0.5486
      84    H40     20.805275   25.555924   17.887461 H          1 MOL1         0.3769
      85    C25     24.658312   17.598432   22.182114 C.3        1 MOL1         0.2972
      86    H41     25.197100   16.698358   22.501836 H          1 MOL1         0.0751
      87    O21     23.498613   17.277719   21.388377 O.3        1 MOL1        -0.3740
      88    C26     24.210997   18.420255   23.416676 C.3        1 MOL1         0.1003
      89    H42     25.123817   18.745551   23.931643 H          1 MOL1         0.0783
      90    O22     23.437103   17.620949   24.325152 O.3        1 MOL1        -0.5519
      91    H43     22.508959   17.565697   23.970871 H          1 MOL1         0.3769
      92    C27     23.444160   19.688469   22.969653 C.3        1 MOL1         0.1053
      93    H44     22.520204   19.375134   22.465807 H          1 MOL1         0.0783
      94    O23     23.126578   20.491640   24.111079 O.3        1 MOL1        -0.5519
      95    H45     22.307397   20.077109   24.497122 H          1 MOL1         0.3769
      96    C28     24.273829   20.514788   21.954593 C.3        1 MOL1         0.1018
      97    H46     25.070859   21.042772   22.494499 H          1 MOL1         0.0783
      98    C29     24.888190   19.631682   20.830384 C.3        1 MOL1         0.1043
      99    H47     24.072524   19.322689   20.164261 H          1 MOL1         0.0783
     100    O24     25.516003   18.447316   21.387866 O.3        1 MOL1        -0.3740
     101    C30     25.928326   20.378356   19.961541 C.3        1 MOL1         0.0138
     102    H48     25.399290   21.118664   19.346137 H          1 MOL1         0.0794
     103    H49     26.394564   19.657744   19.276387 H          1 MOL1         0.0794
     104    O25     26.927684   21.031690   20.754451 O.3        1 MOL1        -0.5486
     105    H50     27.590873   21.416129   20.140452 H          1 MOL1         0.3769
     106    C31     21.258979   14.015528   20.195194 C.3        1 MOL1         0.2972
     107    H51     20.860923   13.090694   19.758855 H          1 MOL1         0.0751
     108    O26     20.192270   14.883288   20.631289 O.3        1 MOL1        -0.3740
     109    C32     22.243146   13.705298   21.357268 C.3        1 MOL1         0.1003
     110    H52     23.062104   13.119747   20.919578 H          1 MOL1         0.0783
     111    O27     21.634005   12.924481   22.396967 O.3        1 MOL1        -0.5519
     112    H53     20.963067   13.510091   22.830464 H          1 MOL1         0.3769
     113    C33     22.863236   14.996812   21.947722 C.3        1 MOL1         0.1053
     114    H54     22.079840   15.540321   22.491615 H          1 MOL1         0.0783
     115    O28     23.912212   14.612667   22.843412 O.3        1 MOL1        -0.5519
     116    H55     23.502394   13.973030   23.465177 H          1 MOL1         0.3769
     117    C34     23.417589   15.944110   20.847317 C.3        1 MOL1         0.1018
     118    H56     24.400744   15.582523   20.521588 H          1 MOL1         0.0783
     119    C35     22.472941   16.056525   19.620552 C.3        1 MOL1         0.1043
     120    H57     21.609145   16.659999   19.927217 H          1 MOL1         0.0783
     121    O29     22.017718   14.743127   19.205806 O.3        1 MOL1        -0.3740
     122    C36     23.109133   16.774592   18.404193 C.3        1 MOL1         0.0138
     123    H58     23.152344   17.850058   18.619413 H          1 MOL1         0.0794
     124    H59     22.444712   16.647690   17.539321 H          1 MOL1         0.0794
     125    O30     24.421269   16.289937   18.092007 O.3        1 MOL1        -0.5486
     126    H60     25.027154   16.606449   18.795855 H          1 MOL1         0.3769
     127    C1      20.230500   18.602660   23.667386 C.2        1 MOL1         0.6132
     128    O1      20.730484   17.497681   23.563751 O.co2      1 MOL1        -0.6749
     129    O2      20.592845   19.420129   24.491000 O.co2      1 MOL1        -0.6749
     130    C2      19.160149   19.024290   22.666889 C.3        1 MOL1        -0.1955
     131    H1      18.715105   19.958437   23.026879 H          1 MOL1         0.0733
     132    H2      18.368575   18.271301   22.695063 H          1 MOL1         0.0733
     133    C3      19.680108   19.218995   21.252752 C.2        1 MOL1        -0.1395
     134    H3      20.337758   20.076503   21.123596 H          1 MOL1         0.0816
     135    C4      19.339226   18.436626   20.220233 C.2        1 MOL1        -0.1394
     136    H4      18.684511   17.586476   20.394320 H          1 MOL1         0.0816
     137    C5      19.752699   18.599772   18.767829 C.3        1 MOL1        -0.1826
     138    H5      20.253850   17.684823   18.430365 H          1 MOL1         0.0736
     139    H6      18.851315   18.676322   18.146567 H          1 MOL1         0.0736
     140    C6      20.659889   19.815069   18.484206 C.3        1 MOL1        -0.2882
     141    H7      21.578908   19.770198   19.083224 H          1 MOL1         0.0749
     142    H8      20.946371   19.844267   17.425304 H          1 MOL1         0.0749
     143    H9      20.135214   20.749276   18.716801 H          1 MOL1         0.0749
@<TRIPOS>BOND
    1     1     2    1
    2     1     3    1
    3     1     4    1
    4     4     5    1
    5     4     6    1
    6     6     7    1
    7     4     8    1
    8     8     9    1
    9     8    10    1
   10    10    11    1
   11     8    12    1
   12    12    13    1
   13    12    14    1
   14    14    15    1
   15     1    16    1
   16    14    16    1
   17    14    17    1
   18    17    18    1
   19    17    19    1
   20    17    20    1
   21    20    21    1
   22    22    23    1
   23    22    24    1
   24    22    25    1
   25    25    26    1
   26    25    27    1
   27    27    28    1
   28    25    29    1
   29    29    30    1
   30    29    31    1
   31    31    32    1
   32     3    33    1
   33    29    33    1
   34    33    34    1
   35    33    35    1
   36    35    36    1
   37    22    37    1
   38    35    37    1
   39    35    38    1
   40    38    39    1
   41    38    40    1
   42    38    41    1
   43    41    42    1
   44    43    44    1
   45    43    45    1
   46    43    46    1
   47    46    47    1
   48    46    48    1
   49    48    49    1
   50    46    50    1
   51    50    51    1
   52    50    52    1
   53    52    53    1
   54    24    54    1
   55    50    54    1
   56    54    55    1
   57    54    56    1
   58    56    57    1
   59    43    58    1
   60    56    58    1
   61    56    59    1
   62    59    60    1
   63    59    61    1
   64    59    62    1
   65    62    63    1
   66    64    65    1
   67    64    66    1
   68    64    67    1
   69    67    68    1
   70    67    69    1
   71    69    70    1
   72    67    71    1
   73    71    72    1
   74    71    73    1
   75    73    74    1
   76    45    75    1
   77    71    75    1
   78    75    76    1
   79    75    77    1
   80    77    78    1
   81    64    79    1
   82    77    79    1
   83    77    80    1
   84    80    81    1
   85    80    82    1
   86    80    83    1
   87    83    84    1
   88    85    86    1
   89    85    87    1
   90    85    88    1
   91    88    89    1
   92    88    90    1
   93    90    91    1
   94    88    92    1
   95    92    93    1
   96    92    94    1
   97    94    95    1
   98    66    96    1
   99    92    96    1
  100    96    97    1
  101    96    98    1
  102    98    99    1
  103    85   100    1
  104    98   100    1
  105    98   101    1
  106   101   102    1
  107   101   103    1
  108   101   104    1
  109   104   105    1
  110   106   107    1
  111    12   108    1
  112   106   108    1
  113   106   109    1
  114   109   110    1
  115   109   111    1
  116   111   112    1
  117   109   113    1
  118   113   114    1
  119   113   115    1
  120   115   116    1
  121    87   117    1
  122   113   117    1
  123   117   118    1
  124   117   119    1
  125   119   120    1
  126   106   121    1
  127   119   121    1
  128   119   122    1
  129   122   123    1
  130   122   124    1
  131   122   125    1
  132   125   126    1
  133   127   128    1
  134   127   129    2
  135   127   130    1
  136   130   131    1
  137   130   132    1
  138   130   133    1
  139   133   134    1
  140   133   135    2
  141   135   136    1
  142   135   137    1
  143   137   138    1
  144   137   139    1
  145   137   140    1
  146   140   141    1
  147   140   142    1
  148   140   143    1
@<TRIPOS>SUBSTRUCTURE
       1 MOL1            1 RESIDUE      1      MOL     
       2 MOL1          143 RESIDUE      1      MOL     
@<SCITEGIC>MOL_PROPERTY
feprocess Rank
SciTegic.value.IntegerValue
6

@<SCITEGIC>MOL_PROPERTY
Conf_Id
SciTegic.value.IntegerValue
109

@<SCITEGIC>MOL_PROPERTY
Probability
SciTegic.value.DoubleValue
1.78

@<SCITEGIC>MOL_PROPERTY
G
SciTegic.value.DoubleValue
500.013

@<SCITEGIC>MOL_PROPERTY
E
SciTegic.value.DoubleValue
315.728

@<SCITEGIC>MOL_PROPERTY
-TS
SciTegic.value.DoubleValue
184.285

@<SCITEGIC>MOL_PROPERTY
U+W
SciTegic.value.DoubleValue
189.640

@<SCITEGIC>MOL_PROPERTY
U
SciTegic.value.DoubleValue
263.230

@<SCITEGIC>MOL_PROPERTY
W
SciTegic.value.DoubleValue
-73.591

@<SCITEGIC>MOL_PROPERTY
W(PB)
SciTegic.value.DoubleValue
-79.565

@<SCITEGIC>MOL_PROPERTY
W(SA)
SciTegic.value.DoubleValue
5.974

@<SCITEGIC>MOL_PROPERTY
Valence
SciTegic.value.DoubleValue
158.997

@<SCITEGIC>MOL_PROPERTY
Coulomb
SciTegic.value.DoubleValue
128.661

@<SCITEGIC>MOL_PROPERTY
VdW
SciTegic.value.DoubleValue
-24.428

@<SCITEGIC>MOL_PROPERTY
VdW6
SciTegic.value.DoubleValue
-185.822

@<SCITEGIC>MOL_PROPERTY
VdW12
SciTegic.value.DoubleValue
161.395

@<SCITEGIC>MOL_PROPERTY
Bond
SciTegic.value.DoubleValue
5.050

@<SCITEGIC>MOL_PROPERTY
Angle
SciTegic.value.DoubleValue
15.670

@<SCITEGIC>MOL_PROPERTY
Pdih
SciTegic.value.DoubleValue
138.263

@<SCITEGIC>MOL_PROPERTY
Idih
SciTegic.value.DoubleValue
0.014

@<SCITEGIC>MOL_PROPERTY
Tether
SciTegic.value.DoubleValue
0.000

@<TRIPOS>MOLECULE
CD_guest-s20_fast_vm2_rndm.mol2 : feprocess host+ligand conformer 7
         143         148           2
SMALL
USER_CHARGES
 
@<TRIPOS>ATOM
       1    C1      16.188468   15.223226   20.473545 C.3        1 MOL1         0.2972
       2    H1      15.193872   15.077554   20.032540 H          1 MOL1         0.0751
       3    O1      16.356161   16.555627   20.993912 O.3        1 MOL1        -0.3740
       4    C2      16.450311   14.221194   21.625931 C.3        1 MOL1         0.1003
       5    H2      16.426776   13.212712   21.192859 H          1 MOL1         0.0783
       6    O2      15.442911   14.315982   22.645178 O.3        1 MOL1        -0.5519
       7    H3      15.405904   15.261836   22.938128 H          1 MOL1         0.3769
       8    C3      17.858956   14.449495   22.229405 C.3        1 MOL1         0.1053
       9    H4      17.862308   15.426215   22.732718 H          1 MOL1         0.0783
      10    O3      18.134811   13.415315   23.178668 O.3        1 MOL1        -0.5519
      11    H5      17.325884   13.350145   23.732772 H          1 MOL1         0.3769
      12    C4      18.954139   14.467544   21.129079 C.3        1 MOL1         0.1018
      13    H6      19.128130   13.434378   20.801289 H          1 MOL1         0.0783
      14    C5      18.563977   15.331512   19.894205 C.3        1 MOL1         0.1043
      15    H7      18.601948   16.388079   20.183554 H          1 MOL1         0.0783
      16    O4      17.214441   15.002745   19.480629 O.3        1 MOL1        -0.3740
      17    C6      19.505803   15.179325   18.670749 C.3        1 MOL1         0.0138
      18    H8      20.287645   15.945468   18.737753 H          1 MOL1         0.0794
      19    H9      18.933052   15.398801   17.759826 H          1 MOL1         0.0794
      20    O5      20.106771   13.881583   18.569848 O.3        1 MOL1        -0.5486
      21    H10     20.722328   13.781316   19.332800 H          1 MOL1         0.3769
      22    C7      14.675926   20.215577   21.612934 C.3        1 MOL1         0.2972
      23    H11     14.065276   21.116336   21.757642 H          1 MOL1         0.0751
      24    O6      16.078518   20.529040   21.525820 O.3        1 MOL1        -0.3740
      25    C8      14.476548   19.242966   22.797927 C.3        1 MOL1         0.1003
      26    H12     13.425297   18.926688   22.797203 H          1 MOL1         0.0783
      27    O7      14.777637   19.896684   24.041230 O.3        1 MOL1        -0.5519
      28    H13     15.329138   20.687219   23.821096 H          1 MOL1         0.3769
      29    C9      15.358835   17.986585   22.618475 C.3        1 MOL1         0.1053
      30    H14     16.406876   18.297005   22.716029 H          1 MOL1         0.0783
      31    O8      15.048762   17.038418   23.644136 O.3        1 MOL1        -0.5519
      32    H15     15.029565   17.565388   24.474400 H          1 MOL1         0.3769
      33    C10     15.171771   17.339767   21.220954 C.3        1 MOL1         0.1018
      34    H16     14.261585   16.725655   21.233978 H          1 MOL1         0.0783
      35    C11     15.115337   18.374117   20.059185 C.3        1 MOL1         0.1043
      36    H17     16.142615   18.712339   19.879273 H          1 MOL1         0.0783
      37    O9      14.298882   19.523521   20.405170 O.3        1 MOL1        -0.3740
      38    C12     14.595306   17.782065   18.727781 C.3        1 MOL1         0.0138
      39    H18     15.353722   17.092353   18.333184 H          1 MOL1         0.0794
      40    H19     14.486243   18.597221   17.999719 H          1 MOL1         0.0794
      41    O10     13.350606   17.092176   18.894582 O.3        1 MOL1        -0.5486
      42    H20     13.044243   16.810637   18.004884 H          1 MOL1         0.3769
      43    C13     18.567898   23.863241   21.033467 C.3        1 MOL1         0.2972
      44    H21     18.938586   24.857055   20.751340 H          1 MOL1         0.0751
      45    O11     19.624007   23.022082   21.537489 O.3        1 MOL1        -0.3740
      46    C14     17.491987   23.978052   22.146243 C.3        1 MOL1         0.1003
      47    H22     16.683769   24.610255   21.756316 H          1 MOL1         0.0783
      48    O12     18.036518   24.587683   23.327723 O.3        1 MOL1        -0.5519
      49    H23     18.925591   24.179073   23.488258 H          1 MOL1         0.3769
      50    C15     16.890607   22.589500   22.480397 C.3        1 MOL1         0.1053
      51    H24     17.677904   21.971395   22.935073 H          1 MOL1         0.0783
      52    O13     15.802346   22.744185   23.397599 O.3        1 MOL1        -0.5519
      53    H25     16.130732   23.375078   24.076829 H          1 MOL1         0.3769
      54    C16     16.405759   21.886444   21.189129 C.3        1 MOL1         0.1018
      55    H26     15.538283   22.428679   20.789874 H          1 MOL1         0.0783
      56    C17     17.521613   21.855069   20.111101 C.3        1 MOL1         0.1043
      57    H27     18.356658   21.249676   20.486308 H          1 MOL1         0.0783
      58    O14     17.974319   23.210834   19.888092 O.3        1 MOL1        -0.3740
      59    C18     17.092344   21.244508   18.751637 C.3        1 MOL1         0.0138
      60    H28     17.305632   20.168673   18.773203 H          1 MOL1         0.0794
      61    H29     17.722059   21.673560   17.960920 H          1 MOL1         0.0794
      62    O15     15.707605   21.456188   18.446450 O.3        1 MOL1        -0.5486
      63    H30     15.181397   20.914953   19.079993 H          1 MOL1         0.3769
      64    C19     23.766339   22.838999   21.799084 C.3        1 MOL1         0.2972
      65    H31     24.841266   23.057184   21.831893 H          1 MOL1         0.0751
      66    O16     23.517684   21.418941   21.897112 O.3        1 MOL1        -0.3740
      67    C20     23.052076   23.574804   22.960788 C.3        1 MOL1         0.1003
      68    H32     23.129235   24.649302   22.750229 H          1 MOL1         0.0783
      69    O17     23.696895   23.328963   24.218010 O.3        1 MOL1        -0.5519
      70    H33     23.443305   22.416812   24.521338 H          1 MOL1         0.3769
      71    C21     21.546990   23.209068   22.959260 C.3        1 MOL1         0.1053
      72    H34     21.441027   22.121128   23.069209 H          1 MOL1         0.0783
      73    O18     20.857331   23.863394   24.030267 O.3        1 MOL1        -0.5519
      74    H35     21.098623   23.331426   24.835050 H          1 MOL1         0.3769
      75    C22     20.934604   23.616681   21.599207 C.3        1 MOL1         0.1018
      76    H36     20.890789   24.713092   21.559758 H          1 MOL1         0.0783
      77    C23     21.760652   23.070188   20.398015 C.3        1 MOL1         0.1043
      78    H37     21.599157   21.985938   20.358805 H          1 MOL1         0.0783
      79    O19     23.181388   23.328739   20.572647 O.3        1 MOL1        -0.3740
      80    C24     21.331406   23.660266   19.032809 C.3        1 MOL1         0.0138
      81    H38     20.352152   23.243767   18.762889 H          1 MOL1         0.0794
      82    H39     22.046040   23.332065   18.266388 H          1 MOL1         0.0794
      83    O20     21.260855   25.091315   19.063418 O.3        1 MOL1        -0.5486
      84    H40     21.035620   25.397751   18.158204 H          1 MOL1         0.3769
      85    C25     24.974693   17.682749   20.794525 C.3        1 MOL1         0.2972
      86    H41     25.537795   16.825359   20.404175 H          1 MOL1         0.0751
      87    O21     23.638116   17.303285   21.185568 O.3        1 MOL1        -0.3740
      88    C26     25.708393   18.338290   21.993282 C.3        1 MOL1         0.1003
      89    H42     26.668752   18.716084   21.619943 H          1 MOL1         0.0783
      90    O22     25.962578   17.374692   23.026967 O.3        1 MOL1        -0.5519
      91    H43     25.085435   17.143777   23.422555 H          1 MOL1         0.3769
      92    C27     24.894007   19.550510   22.518621 C.3        1 MOL1         0.1053
      93    H44     23.958226   19.165576   22.943855 H          1 MOL1         0.0783
      94    O23     25.625083   20.244845   23.534550 O.3        1 MOL1        -0.5519
      95    H45     24.935246   20.554554   24.179860 H          1 MOL1         0.3769
      96    C28     24.541294   20.542494   21.374006 C.3        1 MOL1         0.1018
      97    H46     25.454739   21.093088   21.114676 H          1 MOL1         0.0783
      98    C29     23.994253   19.817864   20.104941 C.3        1 MOL1         0.1043
      99    H47     22.987449   19.446846   20.332927 H          1 MOL1         0.0783
     100    O24     24.854035   18.697649   19.777907 O.3        1 MOL1        -0.3740
     101    C30     23.873706   20.687460   18.826438 C.3        1 MOL1         0.0138
     102    H48     22.868260   21.120085   18.788182 H          1 MOL1         0.0794
     103    H49     23.959750   20.030139   17.950839 H          1 MOL1         0.0794
     104    O25     24.853390   21.728432   18.748895 O.3        1 MOL1        -0.5486
     105    H50     24.523280   22.466346   19.312952 H          1 MOL1         0.3769
     106    C31     21.163739   14.113106   22.085716 C.3        1 MOL1         0.2972
     107    H51     20.732934   13.139960   22.355492 H          1 MOL1         0.0751
     108    O26     20.135666   15.051119   21.712725 O.3        1 MOL1        -0.3740
     109    C32     21.940580   14.691284   23.292671 C.3        1 MOL1         0.1003
     110    H52     22.740271   13.982462   23.543932 H          1 MOL1         0.0783
     111    O27     21.068124   14.844577   24.421653 O.3        1 MOL1        -0.5519
     112    H53     20.215334   15.175247   24.061146 H          1 MOL1         0.3769
     113    C33     22.593560   16.044769   22.936836 C.3        1 MOL1         0.1053
     114    H54     21.790941   16.775431   22.772932 H          1 MOL1         0.0783
     115    O28     23.414969   16.460347   24.031750 O.3        1 MOL1        -0.5519
     116    H55     22.839056   16.375941   24.823120 H          1 MOL1         0.3769
     117    C34     23.433488   15.950491   21.638735 C.3        1 MOL1         0.1018
     118    H56     24.379488   15.438594   21.859880 H          1 MOL1         0.0783
     119    C35     22.676103   15.214689   20.498403 C.3        1 MOL1         0.1043
     120    H57     21.881560   15.886873   20.155530 H          1 MOL1         0.0783
     121    O29     22.076946   13.980879   20.974782 O.3        1 MOL1        -0.3740
     122    C36     23.565139   14.889866   19.274095 C.3        1 MOL1         0.0138
     123    H58     23.811151   15.830491   18.762942 H          1 MOL1         0.0794
     124    H59     22.985698   14.278678   18.569229 H          1 MOL1         0.0794
     125    O30     24.770039   14.210993   19.648647 O.3        1 MOL1        -0.5486
     126    H60     25.243928   13.967208   18.823750 H          1 MOL1         0.3769
     127    C1      22.171781   20.691664   25.402360 C.2        1 MOL1         0.6132
     128    O1      21.534147   21.674214   25.729107 O.co2      1 MOL1        -0.6749
     129    O2      23.359034   20.727722   25.141632 O.co2      1 MOL1        -0.6749
     130    C2      21.438039   19.373259   25.207561 C.3        1 MOL1        -0.1955
     131    H1      20.601221   19.336431   25.914514 H          1 MOL1         0.0733
     132    H2      22.131993   18.571919   25.483614 H          1 MOL1         0.0733
     133    C3      20.963726   19.176199   23.780077 C.2        1 MOL1        -0.1395
     134    H3      21.736616   19.277458   23.022007 H          1 MOL1         0.0816
     135    C4      19.697668   18.904366   23.445148 C.2        1 MOL1        -0.1394
     136    H4      18.945217   18.814590   24.227409 H          1 MOL1         0.0816
     137    C5      19.158684   18.688288   22.043718 C.3        1 MOL1        -0.1826
     138    H5      18.726675   17.682753   21.987409 H          1 MOL1         0.0736
     139    H6      18.324953   19.378173   21.883552 H          1 MOL1         0.0736
     140    C6      20.181282   18.875708   20.902618 C.3        1 MOL1        -0.2882
     141    H7      20.995399   18.145727   20.983806 H          1 MOL1         0.0749
     142    H8      19.699876   18.738896   19.926450 H          1 MOL1         0.0749
     143    H9      20.612279   19.884223   20.931444 H          1 MOL1         0.0749
@<TRIPOS>BOND
    1     1     2    1
    2     1     3    1
    3     1     4    1
    4     4     5    1
    5     4     6    1
    6     6     7    1
    7     4     8    1
    8     8     9    1
    9     8    10    1
   10    10    11    1
   11     8    12    1
   12    12    13    1
   13    12    14    1
   14    14    15    1
   15     1    16    1
   16    14    16    1
   17    14    17    1
   18    17    18    1
   19    17    19    1
   20    17    20    1
   21    20    21    1
   22    22    23    1
   23    22    24    1
   24    22    25    1
   25    25    26    1
   26    25    27    1
   27    27    28    1
   28    25    29    1
   29    29    30    1
   30    29    31    1
   31    31    32    1
   32     3    33    1
   33    29    33    1
   34    33    34    1
   35    33    35    1
   36    35    36    1
   37    22    37    1
   38    35    37    1
   39    35    38    1
   40    38    39    1
   41    38    40    1
   42    38    41    1
   43    41    42    1
   44    43    44    1
   45    43    45    1
   46    43    46    1
   47    46    47    1
   48    46    48    1
   49    48    49    1
   50    46    50    1
   51    50    51    1
   52    50    52    1
   53    52    53    1
   54    24    54    1
   55    50    54    1
   56    54    55    1
   57    54    56    1
   58    56    57    1
   59    43    58    1
   60    56    58    1
   61    56    59    1
   62    59    60    1
   63    59    61    1
   64    59    62    1
   65    62    63    1
   66    64    65    1
   67    64    66    1
   68    64    67    1
   69    67    68    1
   70    67    69    1
   71    69    70    1
   72    67    71    1
   73    71    72    1
   74    71    73    1
   75    73    74    1
   76    45    75    1
   77    71    75    1
   78    75    76    1
   79    75    77    1
   80    77    78    1
   81    64    79    1
   82    77    79    1
   83    77    80    1
   84    80    81    1
   85    80    82    1
   86    80    83    1
   87    83    84    1
   88    85    86    1
   89    85    87    1
   90    85    88    1
   91    88    89    1
   92    88    90    1
   93    90    91    1
   94    88    92    1
   95    92    93    1
   96    92    94    1
   97    94    95    1
   98    66    96    1
   99    92    96    1
  100    96    97    1
  101    96    98    1
  102    98    99    1
  103    85   100    1
  104    98   100    1
  105    98   101    1
  106   101   102    1
  107   101   103    1
  108   101   104    1
  109   104   105    1
  110   106   107    1
  111    12   108    1
  112   106   108    1
  113   106   109    1
  114   109   110    1
  115   109   111    1
  116   111   112    1
  117   109   113    1
  118   113   114    1
  119   113   115    1
  120   115   116    1
  121    87   117    1
  122   113   117    1
  123   117   118    1
  124   117   119    1
  125   119   120    1
  126   106   121    1
  127   119   121    1
  128   119   122    1
  129   122   123    1
  130   122   124    1
  131   122   125    1
  132   125   126    1
  133   127   128    1
  134   127   129    2
  135   127   130    1
  136   130   131    1
  137   130   132    1
  138   130   133    1
  139   133   134    1
  140   133   135    2
  141   135   136    1
  142   135   137    1
  143   137   138    1
  144   137   139    1
  145   137   140    1
  146   140   141    1
  147   140   142    1
  148   140   143    1
@<TRIPOS>SUBSTRUCTURE
       1 MOL1            1 RESIDUE      1      MOL     
       2 MOL1          143 RESIDUE      1      MOL     
@<SCITEGIC>MOL_PROPERTY
feprocess Rank
SciTegic.value.IntegerValue
7

@<SCITEGIC>MOL_PROPERTY
Conf_Id
SciTegic.value.IntegerValue
683

@<SCITEGIC>MOL_PROPERTY
Probability
SciTegic.value.DoubleValue
1.18

@<SCITEGIC>MOL_PROPERTY
G
SciTegic.value.DoubleValue
500.261

@<SCITEGIC>MOL_PROPERTY
E
SciTegic.value.DoubleValue
316.991

@<SCITEGIC>MOL_PROPERTY
-TS
SciTegic.value.DoubleValue
183.270

@<SCITEGIC>MOL_PROPERTY
U+W
SciTegic.value.DoubleValue
190.902

@<SCITEGIC>MOL_PROPERTY
U
SciTegic.value.DoubleValue
266.072

@<SCITEGIC>MOL_PROPERTY
W
SciTegic.value.DoubleValue
-75.170

@<SCITEGIC>MOL_PROPERTY
W(PB)
SciTegic.value.DoubleValue
-81.173

@<SCITEGIC>MOL_PROPERTY
W(SA)
SciTegic.value.DoubleValue
6.003

@<SCITEGIC>MOL_PROPERTY
Valence
SciTegic.value.DoubleValue
161.383

@<SCITEGIC>MOL_PROPERTY
Coulomb
SciTegic.value.DoubleValue
127.764

@<SCITEGIC>MOL_PROPERTY
VdW
SciTegic.value.DoubleValue
-23.076

@<SCITEGIC>MOL_PROPERTY
VdW6
SciTegic.value.DoubleValue
-182.195

@<SCITEGIC>MOL_PROPERTY
VdW12
SciTegic.value.DoubleValue
159.120

@<SCITEGIC>MOL_PROPERTY
Bond
SciTegic.value.DoubleValue
5.084

@<SCITEGIC>MOL_PROPERTY
Angle
SciTegic.value.DoubleValue
15.005

@<SCITEGIC>MOL_PROPERTY
Pdih
SciTegic.value.DoubleValue
141.280

@<SCITEGIC>MOL_PROPERTY
Idih
SciTegic.value.DoubleValue
0.015

@<SCITEGIC>MOL_PROPERTY
Tether
SciTegic.value.DoubleValue
0.000

@<TRIPOS>MOLECULE
CD_guest-s20_fast_vm2_rndm.mol2 : feprocess host+ligand conformer 8
         143         148           2
SMALL
USER_CHARGES
 
@<TRIPOS>ATOM
       1    C1      16.341640   15.422521   20.660183 C.3        1 MOL1         0.2972
       2    H1      15.344950   15.262478   20.229036 H          1 MOL1         0.0751
       3    O1      16.446559   16.708039   21.294473 O.3        1 MOL1        -0.3740
       4    C2      16.653119   14.354429   21.741677 C.3        1 MOL1         0.1003
       5    H2      16.565886   13.369492   21.264954 H          1 MOL1         0.0783
       6    O2      15.715436   14.439737   22.828049 O.3        1 MOL1        -0.5519
       7    H3      15.643671   15.395154   23.079125 H          1 MOL1         0.3769
       8    C3      18.102301   14.503149   22.272080 C.3        1 MOL1         0.1053
       9    H4      18.172992   15.446258   22.832052 H          1 MOL1         0.0783
      10    O3      18.406710   13.400857   23.132263 O.3        1 MOL1        -0.5519
      11    H5      17.626100   13.313178   23.723419 H          1 MOL1         0.3769
      12    C4      19.111862   14.559412   21.099821 C.3        1 MOL1         0.1018
      13    H6      19.125161   13.579822   20.603643 H          1 MOL1         0.0783
      14    C5      18.705856   15.632975   20.057694 C.3        1 MOL1         0.1043
      15    H7      18.742371   16.617727   20.538125 H          1 MOL1         0.0783
      16    O4      17.351800   15.352452   19.627987 O.3        1 MOL1        -0.3740
      17    C6      19.618089   15.703108   18.806013 C.3        1 MOL1         0.0138
      18    H8      20.452841   16.380985   19.022277 H          1 MOL1         0.0794
      19    H9      19.048012   16.156460   17.984267 H          1 MOL1         0.0794
      20    O5      20.127591   14.425365   18.404719 O.3        1 MOL1        -0.5486
      21    H10     20.821520   14.171293   19.056984 H          1 MOL1         0.3769
      22    C7      14.579158   20.347568   21.605160 C.3        1 MOL1         0.2972
      23    H11     13.899628   21.207475   21.665792 H          1 MOL1         0.0751
      24    O6      15.958563   20.759968   21.617618 O.3        1 MOL1        -0.3740
      25    C8      14.354035   19.413557   22.817493 C.3        1 MOL1         0.1003
      26    H12     13.321148   19.044712   22.770430 H          1 MOL1         0.0783
      27    O7      14.550027   20.138311   24.041782 O.3        1 MOL1        -0.5519
      28    H13     15.212197   20.843610   23.845537 H          1 MOL1         0.3769
      29    C9      15.305744   18.197072   22.750776 C.3        1 MOL1         0.1053
      30    H14     16.328866   18.564089   22.903627 H          1 MOL1         0.0783
      31    O8      14.972677   17.263486   23.784177 O.3        1 MOL1        -0.5519
      32    H15     14.886013   17.806062   24.599238 H          1 MOL1         0.3769
      33    C10     15.242469   17.491147   21.374014 C.3        1 MOL1         0.1018
      34    H16     14.339992   16.866171   21.345028 H          1 MOL1         0.0783
      35    C11     15.256371   18.481003   20.174078 C.3        1 MOL1         0.1043
      36    H17     16.279169   18.867880   20.088160 H          1 MOL1         0.0783
      37    O9      14.345791   19.587862   20.402500 O.3        1 MOL1        -0.3740
      38    C12     14.893695   17.832112   18.816423 C.3        1 MOL1         0.0138
      39    H18     15.728232   17.193746   18.497613 H          1 MOL1         0.0794
      40    H19     14.789146   18.626345   18.065034 H          1 MOL1         0.0794
      41    O10     13.689785   17.058919   18.892844 O.3        1 MOL1        -0.5486
      42    H20     13.479305   16.744660   17.986535 H          1 MOL1         0.3769
      43    C13     18.463139   23.957458   20.736872 C.3        1 MOL1         0.2972
      44    H21     18.901033   24.901624   20.388183 H          1 MOL1         0.0751
      45    O11     19.473454   23.035214   21.191256 O.3        1 MOL1        -0.3740
      46    C14     17.460827   24.199542   21.895614 C.3        1 MOL1         0.1003
      47    H22     16.658650   24.838869   21.504717 H          1 MOL1         0.0783
      48    O12     18.087281   24.861979   23.004881 O.3        1 MOL1        -0.5519
      49    H23     18.880520   24.324559   23.259267 H          1 MOL1         0.3769
      50    C15     16.826502   22.861731   22.348446 C.3        1 MOL1         0.1053
      51    H24     17.616683   22.242555   22.795861 H          1 MOL1         0.0783
      52    O13     15.804895   23.116452   23.318675 O.3        1 MOL1        -0.5519
      53    H25     16.199532   23.765685   23.942373 H          1 MOL1         0.3769
      54    C16     16.229336   22.091031   21.143787 C.3        1 MOL1         0.1018
      55    H26     15.316999   22.608347   20.819150 H          1 MOL1         0.0783
      56    C17     17.223663   21.999330   19.948992 C.3        1 MOL1         0.1043
      57    H27     18.054587   21.343335   20.238404 H          1 MOL1         0.0783
      58    O14     17.737488   23.322869   19.662422 O.3        1 MOL1        -0.3740
      59    C18     16.632464   21.423604   18.635108 C.3        1 MOL1         0.0138
      60    H28     16.809141   20.342057   18.614414 H          1 MOL1         0.0794
      61    H29     17.191587   21.844955   17.788988 H          1 MOL1         0.0794
      62    O15     15.233881   21.688108   18.474008 O.3        1 MOL1        -0.5486
      63    H30     14.753229   21.072083   19.075327 H          1 MOL1         0.3769
      64    C19     23.548265   22.667620   21.780718 C.3        1 MOL1         0.2972
      65    H31     24.625260   22.818050   21.930650 H          1 MOL1         0.0751
      66    O16     23.225457   21.278624   21.586817 O.3        1 MOL1        -0.3740
      67    C20     22.761232   23.183406   23.009420 C.3        1 MOL1         0.1003
      68    H32     22.942790   24.263434   23.084787 H          1 MOL1         0.0783
      69    O17     23.211257   22.547790   24.215991 O.3        1 MOL1        -0.5519
      70    H33     23.872042   21.863292   23.949674 H          1 MOL1         0.3769
      71    C21     21.243888   22.965894   22.807565 C.3        1 MOL1         0.1053
      72    H34     21.047994   21.884809   22.778349 H          1 MOL1         0.0783
      73    O18     20.537241   23.556792   23.902645 O.3        1 MOL1        -0.5519
      74    H35     21.010821   23.233330   24.701714 H          1 MOL1         0.3769
      75    C22     20.773149   23.587718   21.468809 C.3        1 MOL1         0.1018
      76    H36     20.739198   24.679017   21.586796 H          1 MOL1         0.0783
      77    C23     21.693827   23.207773   20.272521 C.3        1 MOL1         0.1043
      78    H37     21.519533   22.149929   20.039212 H          1 MOL1         0.0783
      79    O19     23.090984   23.391412   20.619464 O.3        1 MOL1        -0.3740
      80    C24     21.401174   24.013850   18.984393 C.3        1 MOL1         0.0138
      81    H38     20.436802   23.681573   18.576733 H          1 MOL1         0.0794
      82    H39     22.170168   23.773441   18.238019 H          1 MOL1         0.0794
      83    O20     21.365661   25.425938   19.227180 O.3        1 MOL1        -0.5486
      84    H40     21.254468   25.874301   18.360518 H          1 MOL1         0.3769
      85    C25     25.174600   17.588231   21.373499 C.3        1 MOL1         0.2972
      86    H41     25.895541   16.791808   21.149032 H          1 MOL1         0.0751
      87    O21     23.977611   17.053114   21.979241 O.3        1 MOL1        -0.3740
      88    C26     25.805977   18.616641   22.352980 C.3        1 MOL1         0.1003
      89    H42     26.708381   19.008979   21.866697 H          1 MOL1         0.0783
      90    O22     26.176620   17.999803   23.594678 O.3        1 MOL1        -0.5519
      91    H43     25.327937   17.796035   24.074772 H          1 MOL1         0.3769
      92    C27     24.850955   19.806569   22.617707 C.3        1 MOL1         0.1053
      93    H44     23.987343   19.427297   23.173127 H          1 MOL1         0.0783
      94    O23     25.526729   20.800166   23.395847 O.3        1 MOL1        -0.5519
      95    H45     25.983543   20.296988   24.107177 H          1 MOL1         0.3769
      96    C28     24.332032   20.411830   21.290823 C.3        1 MOL1         0.1018
      97    H46     25.150288   20.950340   20.794986 H          1 MOL1         0.0783
      98    C29     23.793570   19.316444   20.337630 C.3        1 MOL1         0.1043
      99    H47     22.908388   18.861990   20.797267 H          1 MOL1         0.0783
     100    O24     24.814206   18.306268   20.170358 O.3        1 MOL1        -0.3740
     101    C30     23.357807   19.845128   18.946603 C.3        1 MOL1         0.0138
     102    H48     22.320172   20.195447   19.021240 H          1 MOL1         0.0794
     103    H49     23.362614   19.009280   18.234664 H          1 MOL1         0.0794
     104    O25     24.185302   20.911332   18.464751 O.3        1 MOL1        -0.5486
     105    H50     24.020843   21.690297   19.042079 H          1 MOL1         0.3769
     106    C31     21.378481   13.844989   21.597794 C.3        1 MOL1         0.2972
     107    H51     20.901526   12.863012   21.482956 H          1 MOL1         0.0751
     108    O26     20.401318   14.904395   21.642539 O.3        1 MOL1        -0.3740
     109    C32     22.203743   13.859601   22.901584 C.3        1 MOL1         0.1003
     110    H52     22.971594   13.080031   22.816797 H          1 MOL1         0.0783
     111    O27     21.343812   13.553256   24.011372 O.3        1 MOL1        -0.5519
     112    H53     20.442785   13.878570   23.773352 H          1 MOL1         0.3769
     113    C33     22.929016   15.215683   23.083952 C.3        1 MOL1         0.1053
     114    H54     22.167903   15.979854   23.295836 H          1 MOL1         0.0783
     115    O28     23.847349   15.122851   24.179850 O.3        1 MOL1        -0.5519
     116    H55     23.847079   16.018832   24.608907 H          1 MOL1         0.3769
     117    C34     23.714633   15.639528   21.810084 C.3        1 MOL1         0.1018
     118    H56     24.648888   15.063720   21.788481 H          1 MOL1         0.0783
     119    C35     22.915306   15.402668   20.487466 C.3        1 MOL1         0.1043
     120    H57     22.151660   16.186544   20.416622 H          1 MOL1         0.0783
     121    O29     22.268888   14.103949   20.499441 O.3        1 MOL1        -0.3740
     122    C36     23.759474   15.441836   19.188239 C.3        1 MOL1         0.0138
     123    H58     23.956111   16.482133   18.911137 H          1 MOL1         0.0794
     124    H59     23.159854   15.014364   18.373199 H          1 MOL1         0.0794
     125    O30     24.992220   14.722533   19.317155 O.3        1 MOL1        -0.5486
     126    H60     25.444634   14.749446   18.446190 H          1 MOL1         0.3769
     127    C1      22.633266   17.935422   25.451988 C.2        1 MOL1         0.6132
     128    O1      23.779879   17.799770   25.065250 O.co2      1 MOL1        -0.6749
     129    O2      22.052206   17.105333   26.120693 O.co2      1 MOL1        -0.6749
     130    C2      21.880264   19.199299   25.056594 C.3        1 MOL1        -0.1955
     131    H1      22.602802   20.021576   25.041998 H          1 MOL1         0.0733
     132    H2      21.155485   19.426229   25.846949 H          1 MOL1         0.0733
     133    C3      21.195939   19.082091   23.706487 C.2        1 MOL1        -0.1395
     134    H3      21.858993   18.869179   22.872954 H          1 MOL1         0.0816
     135    C4      19.877001   19.211483   23.522512 C.2        1 MOL1        -0.1394
     136    H4      19.235531   19.416666   24.378378 H          1 MOL1         0.0816
     137    C5      19.134714   19.122106   22.201625 C.3        1 MOL1        -0.1826
     138    H5      18.501938   18.227041   22.208540 H          1 MOL1         0.0736
     139    H6      18.448373   19.973960   22.135030 H          1 MOL1         0.0736
     140    C6      20.030224   19.113258   20.944616 C.3        1 MOL1        -0.2882
     141    H7      20.671366   18.223249   20.931627 H          1 MOL1         0.0749
     142    H8      19.417577   19.103962   20.034572 H          1 MOL1         0.0749
     143    H9      20.665721   20.007272   20.919021 H          1 MOL1         0.0749
@<TRIPOS>BOND
    1     1     2    1
    2     1     3    1
    3     1     4    1
    4     4     5    1
    5     4     6    1
    6     6     7    1
    7     4     8    1
    8     8     9    1
    9     8    10    1
   10    10    11    1
   11     8    12    1
   12    12    13    1
   13    12    14    1
   14    14    15    1
   15     1    16    1
   16    14    16    1
   17    14    17    1
   18    17    18    1
   19    17    19    1
   20    17    20    1
   21    20    21    1
   22    22    23    1
   23    22    24    1
   24    22    25    1
   25    25    26    1
   26    25    27    1
   27    27    28    1
   28    25    29    1
   29    29    30    1
   30    29    31    1
   31    31    32    1
   32     3    33    1
   33    29    33    1
   34    33    34    1
   35    33    35    1
   36    35    36    1
   37    22    37    1
   38    35    37    1
   39    35    38    1
   40    38    39    1
   41    38    40    1
   42    38    41    1
   43    41    42    1
   44    43    44    1
   45    43    45    1
   46    43    46    1
   47    46    47    1
   48    46    48    1
   49    48    49    1
   50    46    50    1
   51    50    51    1
   52    50    52    1
   53    52    53    1
   54    24    54    1
   55    50    54    1
   56    54    55    1
   57    54    56    1
   58    56    57    1
   59    43    58    1
   60    56    58    1
   61    56    59    1
   62    59    60    1
   63    59    61    1
   64    59    62    1
   65    62    63    1
   66    64    65    1
   67    64    66    1
   68    64    67    1
   69    67    68    1
   70    67    69    1
   71    69    70    1
   72    67    71    1
   73    71    72    1
   74    71    73    1
   75    73    74    1
   76    45    75    1
   77    71    75    1
   78    75    76    1
   79    75    77    1
   80    77    78    1
   81    64    79    1
   82    77    79    1
   83    77    80    1
   84    80    81    1
   85    80    82    1
   86    80    83    1
   87    83    84    1
   88    85    86    1
   89    85    87    1
   90    85    88    1
   91    88    89    1
   92    88    90    1
   93    90    91    1
   94    88    92    1
   95    92    93    1
   96    92    94    1
   97    94    95    1
   98    66    96    1
   99    92    96    1
  100    96    97    1
  101    96    98    1
  102    98    99    1
  103    85   100    1
  104    98   100    1
  105    98   101    1
  106   101   102    1
  107   101   103    1
  108   101   104    1
  109   104   105    1
  110   106   107    1
  111    12   108    1
  112   106   108    1
  113   106   109    1
  114   109   110    1
  115   109   111    1
  116   111   112    1
  117   109   113    1
  118   113   114    1
  119   113   115    1
  120   115   116    1
  121    87   117    1
  122   113   117    1
  123   117   118    1
  124   117   119    1
  125   119   120    1
  126   106   121    1
  127   119   121    1
  128   119   122    1
  129   122   123    1
  130   122   124    1
  131   122   125    1
  132   125   126    1
  133   127   128    1
  134   127   129    2
  135   127   130    1
  136   130   131    1
  137   130   132    1
  138   130   133    1
  139   133   134    1
  140   133   135    2
  141   135   136    1
  142   135   137    1
  143   137   138    1
  144   137   139    1
  145   137   140    1
  146   140   141    1
  147   140   142    1
  148   140   143    1
@<TRIPOS>SUBSTRUCTURE
       1 MOL1            1 RESIDUE      1      MOL     
       2 MOL1          143 RESIDUE      1      MOL     
@<SCITEGIC>MOL_PROPERTY
feprocess Rank
SciTegic.value.IntegerValue
8

@<SCITEGIC>MOL_PROPERTY
Conf_Id
SciTegic.value.IntegerValue
281

@<SCITEGIC>MOL_PROPERTY
Probability
SciTegic.value.DoubleValue
0.93

@<SCITEGIC>MOL_PROPERTY
G
SciTegic.value.DoubleValue
500.399

@<SCITEGIC>MOL_PROPERTY
E
SciTegic.value.DoubleValue
319.668

@<SCITEGIC>MOL_PROPERTY
-TS
SciTegic.value.DoubleValue
180.731

@<SCITEGIC>MOL_PROPERTY
U+W
SciTegic.value.DoubleValue
193.579

@<SCITEGIC>MOL_PROPERTY
U
SciTegic.value.DoubleValue
276.339

@<SCITEGIC>MOL_PROPERTY
W
SciTegic.value.DoubleValue
-82.759

@<SCITEGIC>MOL_PROPERTY
W(PB)
SciTegic.value.DoubleValue
-88.803

@<SCITEGIC>MOL_PROPERTY
W(SA)
SciTegic.value.DoubleValue
6.043

@<SCITEGIC>MOL_PROPERTY
Valence
SciTegic.value.DoubleValue
160.219

@<SCITEGIC>MOL_PROPERTY
Coulomb
SciTegic.value.DoubleValue
140.680

@<SCITEGIC>MOL_PROPERTY
VdW
SciTegic.value.DoubleValue
-24.560

@<SCITEGIC>MOL_PROPERTY
VdW6
SciTegic.value.DoubleValue
-178.871

@<SCITEGIC>MOL_PROPERTY
VdW12
SciTegic.value.DoubleValue
154.311

@<SCITEGIC>MOL_PROPERTY
Bond
SciTegic.value.DoubleValue
4.818

@<SCITEGIC>MOL_PROPERTY
Angle
SciTegic.value.DoubleValue
13.652

@<SCITEGIC>MOL_PROPERTY
Pdih
SciTegic.value.DoubleValue
141.748

@<SCITEGIC>MOL_PROPERTY
Idih
SciTegic.value.DoubleValue
0.002

@<SCITEGIC>MOL_PROPERTY
Tether
SciTegic.value.DoubleValue
0.000

