@<TRIPOS>MOLECULE
CD_guest-1_fast_vm2_rndm.mol2 : feprocess host+ligand conformer 1
         143         148           2
SMALL
USER_CHARGES
 
@<TRIPOS>ATOM
       1    C1      16.418444   15.375025   21.820799 C.3        1 MOL1         0.2972
       2    H1      15.360353   15.306666   22.103467 H          1 MOL1         0.0751
       3    O1      16.732306   16.657759   21.243826 O.3        1 MOL1        -0.3740
       4    C2      17.316249   15.161046   23.063679 C.3        1 MOL1         0.1003
       5    H2      17.072177   14.171852   23.472846 H          1 MOL1         0.0783
       6    O2      17.076901   16.169309   24.061787 O.3        1 MOL1        -0.5519
       7    H3      16.151872   16.491312   23.925058 H          1 MOL1         0.3769
       8    C3      18.811304   15.177952   22.679186 C.3        1 MOL1         0.1053
       9    H4      19.063430   16.205990   22.399203 H          1 MOL1         0.0783
      10    O3      19.579534   14.787986   23.821378 O.3        1 MOL1        -0.5519
      11    H5      19.031438   15.041107   24.595385 H          1 MOL1         0.3769
      12    C4      19.136454   14.270745   21.465403 C.3        1 MOL1         0.1018
      13    H6      19.210946   13.229718   21.806538 H          1 MOL1         0.0783
      14    C5      18.087643   14.388616   20.323126 C.3        1 MOL1         0.1043
      15    H7      18.244355   15.350845   19.818733 H          1 MOL1         0.0783
      16    O4      16.740800   14.352760   20.855958 O.3        1 MOL1        -0.3740
      17    C6      18.222343   13.284319   19.247478 C.3        1 MOL1         0.0138
      18    H8      19.139389   13.469558   18.671921 H          1 MOL1         0.0794
      19    H9      17.377496   13.368772   18.550852 H          1 MOL1         0.0794
      20    O5      18.266445   11.971739   19.821049 O.3        1 MOL1        -0.5486
      21    H10     18.273302   11.323877   19.082771 H          1 MOL1         0.3769
      22    C7      14.841260   20.324200   20.663573 C.3        1 MOL1         0.2972
      23    H11     14.165683   21.138763   20.371790 H          1 MOL1         0.0751
      24    O6      16.113059   20.821351   21.123186 O.3        1 MOL1        -0.3740
      25    C8      14.224612   19.456844   21.792233 C.3        1 MOL1         0.1003
      26    H12     13.304840   19.009930   21.392793 H          1 MOL1         0.0783
      27    O7      13.894844   20.246337   22.945482 O.3        1 MOL1        -0.5519
      28    H13     14.706133   20.753673   23.202660 H          1 MOL1         0.3769
      29    C9      15.185254   18.303793   22.178516 C.3        1 MOL1         0.1053
      30    H14     16.087499   18.745540   22.621474 H          1 MOL1         0.0783
      31    O8      14.540761   17.462763   23.142094 O.3        1 MOL1        -0.5519
      32    H15     14.070025   18.083637   23.743653 H          1 MOL1         0.3769
      33    C10     15.603657   17.491845   20.919849 C.3        1 MOL1         0.1018
      34    H16     14.748288   16.892407   20.582555 H          1 MOL1         0.0783
      35    C11     16.067426   18.410243   19.756756 C.3        1 MOL1         0.1043
      36    H17     17.024297   18.866826   20.039230 H          1 MOL1         0.0783
      37    O9      15.088517   19.455016   19.536747 O.3        1 MOL1        -0.3740
      38    C12     16.309206   17.657253   18.424380 C.3        1 MOL1         0.0138
      39    H18     17.266667   17.124440   18.495073 H          1 MOL1         0.0794
      40    H19     16.410629   18.396675   17.618929 H          1 MOL1         0.0794
      41    O10     15.264915   16.727549   18.111413 O.3        1 MOL1        -0.5486
      42    H20     15.350987   15.970600   18.730743 H          1 MOL1         0.3769
      43    C13     18.413991   24.108910   21.839743 C.3        1 MOL1         0.2972
      44    H21     18.874035   25.087007   22.031894 H          1 MOL1         0.0751
      45    O11     19.402797   23.091661   21.585664 O.3        1 MOL1        -0.3740
      46    C14     17.576570   23.670677   23.062649 C.3        1 MOL1         0.1003
      47    H22     16.766477   24.400048   23.193091 H          1 MOL1         0.0783
      48    O12     18.388832   23.637429   24.247924 O.3        1 MOL1        -0.5519
      49    H23     19.331575   23.703058   23.955907 H          1 MOL1         0.3769
      50    C15     16.946342   22.284538   22.808178 C.3        1 MOL1         0.1053
      51    H24     17.762975   21.557581   22.768850 H          1 MOL1         0.0783
      52    O13     16.069476   21.952287   23.887785 O.3        1 MOL1        -0.5519
      53    H25     16.564270   22.204965   24.699574 H          1 MOL1         0.3769
      54    C16     16.189290   22.220067   21.457517 C.3        1 MOL1         0.1018
      55    H26     15.197366   22.672579   21.588708 H          1 MOL1         0.0783
      56    C17     16.951134   22.906743   20.285317 C.3        1 MOL1         0.1043
      57    H27     17.757914   22.230208   19.977483 H          1 MOL1         0.0783
      58    O14     17.535130   24.169854   20.698048 O.3        1 MOL1        -0.3740
      59    C18     16.069893   23.155266   19.038211 C.3        1 MOL1         0.0138
      60    H28     15.840174   22.186271   18.574581 H          1 MOL1         0.0794
      61    H29     16.649739   23.736472   18.308564 H          1 MOL1         0.0794
      62    O15     14.853312   23.837615   19.365726 O.3        1 MOL1        -0.5486
      63    H30     14.382608   24.028103   18.524927 H          1 MOL1         0.3769
      64    C19     23.474206   22.650715   20.845342 C.3        1 MOL1         0.2972
      65    H31     24.519122   22.795935   20.542752 H          1 MOL1         0.0751
      66    O16     23.202310   21.264831   21.143181 O.3        1 MOL1        -0.3740
      67    C20     23.115572   23.540558   22.071303 C.3        1 MOL1         0.1003
      68    H32     23.266278   24.583704   21.764236 H          1 MOL1         0.0783
      69    O17     23.952163   23.267540   23.205390 O.3        1 MOL1        -0.5519
      70    H33     23.766872   22.334869   23.482477 H          1 MOL1         0.3769
      71    C21     21.626317   23.370182   22.455833 C.3        1 MOL1         0.1053
      72    H34     21.489437   22.346724   22.823158 H          1 MOL1         0.0783
      73    O18     21.278024   24.301078   23.485928 O.3        1 MOL1        -0.5519
      74    H35     22.030882   24.279189   24.118422 H          1 MOL1         0.3769
      75    C22     20.708102   23.572965   21.226472 C.3        1 MOL1         0.1018
      76    H36     20.698841   24.639854   20.966820 H          1 MOL1         0.0783
      77    C23     21.181776   22.757276   19.994370 C.3        1 MOL1         0.1043
      78    H37     21.046554   21.690403   20.214570 H          1 MOL1         0.0783
      79    O19     22.587855   23.029881   19.766737 O.3        1 MOL1        -0.3740
      80    C24     20.390634   23.044739   18.690613 C.3        1 MOL1         0.0138
      81    H38     19.551773   22.339773   18.632697 H          1 MOL1         0.0794
      82    H39     21.041507   22.832060   17.832038 H          1 MOL1         0.0794
      83    O20     19.891471   24.385978   18.609701 O.3        1 MOL1        -0.5486
      84    H40     19.151611   24.462033   19.255837 H          1 MOL1         0.3769
      85    C25     24.841155   17.612184   22.081864 C.3        1 MOL1         0.2972
      86    H41     25.457206   16.758812   22.393271 H          1 MOL1         0.0751
      87    O21     23.645562   17.185669   21.397421 O.3        1 MOL1        -0.3740
      88    C26     24.442331   18.464607   23.313047 C.3        1 MOL1         0.1003
      89    H42     25.370516   18.829697   23.771792 H          1 MOL1         0.0783
      90    O22     23.702835   17.696866   24.277704 O.3        1 MOL1        -0.5519
      91    H43     23.833969   16.743060   24.055659 H          1 MOL1         0.3769
      92    C27     23.601868   19.682927   22.878044 C.3        1 MOL1         0.1053
      93    H44     22.646413   19.296830   22.505377 H          1 MOL1         0.0783
      94    O23     23.376568   20.525436   24.012861 O.3        1 MOL1        -0.5519
      95    H45     23.208534   19.899332   24.752435 H          1 MOL1         0.3769
      96    C28     24.263607   20.485669   21.731249 C.3        1 MOL1         0.1018
      97    H46     25.059747   21.114081   22.151166 H          1 MOL1         0.0783
      98    C29     24.840454   19.573180   20.610388 C.3        1 MOL1         0.1043
      99    H47     23.997393   19.176000   20.030232 H          1 MOL1         0.0783
     100    O24     25.581490   18.465712   21.184349 O.3        1 MOL1        -0.3740
     101    C30     25.763228   20.318607   19.616615 C.3        1 MOL1         0.0138
     102    H48     25.143670   20.976145   18.992019 H          1 MOL1         0.0794
     103    H49     26.228363   19.580110   18.949893 H          1 MOL1         0.0794
     104    O25     26.769250   21.089895   20.284799 O.3        1 MOL1        -0.5486
     105    H50     27.364959   21.462087   19.598172 H          1 MOL1         0.3769
     106    C31     21.420969   13.796329   20.659023 C.3        1 MOL1         0.2972
     107    H51     21.005584   12.822654   20.368813 H          1 MOL1         0.0751
     108    O26     20.379439   14.760112   20.924226 O.3        1 MOL1        -0.3740
     109    C32     22.352070   13.670676   21.894279 C.3        1 MOL1         0.1003
     110    H52     23.205582   13.050956   21.589520 H          1 MOL1         0.0783
     111    O27     21.700350   13.037599   23.004510 O.3        1 MOL1        -0.5519
     112    H53     20.962614   13.635675   23.284473 H          1 MOL1         0.3769
     113    C33     22.897716   15.061400   22.300163 C.3        1 MOL1         0.1053
     114    H54     22.052954   15.672393   22.646688 H          1 MOL1         0.0783
     115    O28     23.844509   14.900257   23.362268 O.3        1 MOL1        -0.5519
     116    H55     23.454354   14.212377   23.948314 H          1 MOL1         0.3769
     117    C34     23.555786   15.781484   21.090355 C.3        1 MOL1         0.1018
     118    H56     24.546211   15.344184   20.911481 H          1 MOL1         0.0783
     119    C35     22.714548   15.680587   19.785921 C.3        1 MOL1         0.1043
     120    H57     21.852576   16.351870   19.882406 H          1 MOL1         0.0783
     121    O29     22.235654   14.326030   19.591744 O.3        1 MOL1        -0.3740
     122    C36     23.481089   16.127581   18.516423 C.3        1 MOL1         0.0138
     123    H58     23.598994   17.219030   18.545241 H          1 MOL1         0.0794
     124    H59     22.864917   15.892239   17.638516 H          1 MOL1         0.0794
     125    O30     24.766391   15.505952   18.394217 O.3        1 MOL1        -0.5486
     126    H60     25.369541   15.944918   19.031815 H          1 MOL1         0.3769
     127    N1      19.349475   17.774170   25.016847 N.4        1 MOL1        -0.5891
     128    H1      18.681186   17.301307   24.387640 H          1 MOL1         0.3726
     129    H2      18.797083   18.385643   25.624515 H          1 MOL1         0.3726
     130    H3      19.756924   17.049144   25.614808 H          1 MOL1         0.3726
     131    C1      20.426565   18.540267   24.272769 C.3        1 MOL1         0.0314
     132    H4      21.022930   17.829849   23.693888 H          1 MOL1         0.0999
     133    H5      21.081880   18.989134   25.024005 H          1 MOL1         0.0999
     134    C2      19.877252   19.650683   23.355274 C.3        1 MOL1        -0.1308
     135    H6      19.161663   20.258617   23.922963 H          1 MOL1         0.1025
     136    H7      20.695351   20.325601   23.083420 H          1 MOL1         0.1025
     137    C3      19.217145   19.121065   22.060626 C.3        1 MOL1        -0.1243
     138    H8      18.755269   19.959426   21.522467 H          1 MOL1         0.1025
     139    H9      18.402042   18.432970   22.315237 H          1 MOL1         0.1025
     140    C4      20.221543   18.426125   21.113276 C.3        1 MOL1        -0.2258
     141    H10     20.992207   19.129122   20.771272 H          1 MOL1         0.1036
     142    H11     19.706795   18.033206   20.227211 H          1 MOL1         0.1036
     143    H12     20.726625   17.585060   21.603017 H          1 MOL1         0.1036
@<TRIPOS>BOND
    1     1     2    1
    2     1     3    1
    3     1     4    1
    4     4     5    1
    5     4     6    1
    6     6     7    1
    7     4     8    1
    8     8     9    1
    9     8    10    1
   10    10    11    1
   11     8    12    1
   12    12    13    1
   13    12    14    1
   14    14    15    1
   15     1    16    1
   16    14    16    1
   17    14    17    1
   18    17    18    1
   19    17    19    1
   20    17    20    1
   21    20    21    1
   22    22    23    1
   23    22    24    1
   24    22    25    1
   25    25    26    1
   26    25    27    1
   27    27    28    1
   28    25    29    1
   29    29    30    1
   30    29    31    1
   31    31    32    1
   32     3    33    1
   33    29    33    1
   34    33    34    1
   35    33    35    1
   36    35    36    1
   37    22    37    1
   38    35    37    1
   39    35    38    1
   40    38    39    1
   41    38    40    1
   42    38    41    1
   43    41    42    1
   44    43    44    1
   45    43    45    1
   46    43    46    1
   47    46    47    1
   48    46    48    1
   49    48    49    1
   50    46    50    1
   51    50    51    1
   52    50    52    1
   53    52    53    1
   54    24    54    1
   55    50    54    1
   56    54    55    1
   57    54    56    1
   58    56    57    1
   59    43    58    1
   60    56    58    1
   61    56    59    1
   62    59    60    1
   63    59    61    1
   64    59    62    1
   65    62    63    1
   66    64    65    1
   67    64    66    1
   68    64    67    1
   69    67    68    1
   70    67    69    1
   71    69    70    1
   72    67    71    1
   73    71    72    1
   74    71    73    1
   75    73    74    1
   76    45    75    1
   77    71    75    1
   78    75    76    1
   79    75    77    1
   80    77    78    1
   81    64    79    1
   82    77    79    1
   83    77    80    1
   84    80    81    1
   85    80    82    1
   86    80    83    1
   87    83    84    1
   88    85    86    1
   89    85    87    1
   90    85    88    1
   91    88    89    1
   92    88    90    1
   93    90    91    1
   94    88    92    1
   95    92    93    1
   96    92    94    1
   97    94    95    1
   98    66    96    1
   99    92    96    1
  100    96    97    1
  101    96    98    1
  102    98    99    1
  103    85   100    1
  104    98   100    1
  105    98   101    1
  106   101   102    1
  107   101   103    1
  108   101   104    1
  109   104   105    1
  110   106   107    1
  111    12   108    1
  112   106   108    1
  113   106   109    1
  114   109   110    1
  115   109   111    1
  116   111   112    1
  117   109   113    1
  118   113   114    1
  119   113   115    1
  120   115   116    1
  121    87   117    1
  122   113   117    1
  123   117   118    1
  124   117   119    1
  125   119   120    1
  126   106   121    1
  127   119   121    1
  128   119   122    1
  129   122   123    1
  130   122   124    1
  131   122   125    1
  132   125   126    1
  133   127   128    1
  134   127   129    1
  135   127   130    1
  136   127   131    1
  137   131   132    1
  138   131   133    1
  139   131   134    1
  140   134   135    1
  141   134   136    1
  142   134   137    1
  143   137   138    1
  144   137   139    1
  145   137   140    1
  146   140   141    1
  147   140   142    1
  148   140   143    1
@<TRIPOS>SUBSTRUCTURE
       1 MOL1            1 RESIDUE      1      MOL     
       2 MOL1          143 RESIDUE      1      MOL     
@<SCITEGIC>MOL_PROPERTY
feprocess Rank
SciTegic.value.IntegerValue
1

@<SCITEGIC>MOL_PROPERTY
Conf_Id
SciTegic.value.IntegerValue
857

@<SCITEGIC>MOL_PROPERTY
Probability
SciTegic.value.DoubleValue
25.61

@<SCITEGIC>MOL_PROPERTY
G
SciTegic.value.DoubleValue
549.840

@<SCITEGIC>MOL_PROPERTY
E
SciTegic.value.DoubleValue
362.201

@<SCITEGIC>MOL_PROPERTY
-TS
SciTegic.value.DoubleValue
187.639

@<SCITEGIC>MOL_PROPERTY
U+W
SciTegic.value.DoubleValue
236.113

@<SCITEGIC>MOL_PROPERTY
U
SciTegic.value.DoubleValue
326.577

@<SCITEGIC>MOL_PROPERTY
W
SciTegic.value.DoubleValue
-90.462

@<SCITEGIC>MOL_PROPERTY
W(PB)
SciTegic.value.DoubleValue
-96.512

@<SCITEGIC>MOL_PROPERTY
W(SA)
SciTegic.value.DoubleValue
6.050

@<SCITEGIC>MOL_PROPERTY
Valence
SciTegic.value.DoubleValue
146.526

@<SCITEGIC>MOL_PROPERTY
Coulomb
SciTegic.value.DoubleValue
201.213

@<SCITEGIC>MOL_PROPERTY
VdW
SciTegic.value.DoubleValue
-21.162

@<SCITEGIC>MOL_PROPERTY
VdW6
SciTegic.value.DoubleValue
-172.246

@<SCITEGIC>MOL_PROPERTY
VdW12
SciTegic.value.DoubleValue
151.083

@<SCITEGIC>MOL_PROPERTY
Bond
SciTegic.value.DoubleValue
4.656

@<SCITEGIC>MOL_PROPERTY
Angle
SciTegic.value.DoubleValue
12.409

@<SCITEGIC>MOL_PROPERTY
Pdih
SciTegic.value.DoubleValue
129.462

@<SCITEGIC>MOL_PROPERTY
Idih
SciTegic.value.DoubleValue
0.000

@<SCITEGIC>MOL_PROPERTY
Tether
SciTegic.value.DoubleValue
0.000

