@<TRIPOS>MOLECULE
CD_guest-s11_fast_vm2_rndm.mol2 : feprocess host+ligand conformer 1
         146         151           2
SMALL
USER_CHARGES
 
@<TRIPOS>ATOM
       1    C1      16.130831   15.045054   20.526265 C.3        1 MOL1         0.2972
       2    H1      15.063413   14.978650   20.279274 H          1 MOL1         0.0751
       3    O1      16.524150   16.402608   20.823326 O.3        1 MOL1        -0.3740
       4    C2      16.496506   14.113693   21.709746 C.3        1 MOL1         0.1003
       5    H2      16.338964   13.082665   21.366591 H          1 MOL1         0.0783
       6    O2      15.670882   14.346627   22.860075 O.3        1 MOL1        -0.5519
       7    H3      15.878426   15.259976   23.181706 H          1 MOL1         0.3769
       8    C3      17.992391   14.270267   22.071255 C.3        1 MOL1         0.1053
       9    H4      18.139496   15.284793   22.466909 H          1 MOL1         0.0783
      10    O3      18.324407   13.305993   23.077186 O.3        1 MOL1        -0.5519
      11    H5      17.540726   13.280041   23.672545 H          1 MOL1         0.3769
      12    C4      18.911907   14.101819   20.826950 C.3        1 MOL1         0.1018
      13    H6      19.058701   13.032090   20.628298 H          1 MOL1         0.0783
      14    C5      18.356107   14.780979   19.539559 C.3        1 MOL1         0.1043
      15    H7      18.562298   15.855392   19.603835 H          1 MOL1         0.0783
      16    O4      16.924078   14.593568   19.411320 O.3        1 MOL1        -0.3740
      17    C6      19.036822   14.270937   18.247332 C.3        1 MOL1         0.0138
      18    H8      20.093951   14.568443   18.271605 H          1 MOL1         0.0794
      19    H9      18.574049   14.771574   17.386393 H          1 MOL1         0.0794
      20    O5      18.935494   12.847887   18.108560 O.3        1 MOL1        -0.5486
      21    H10     19.354134   12.600801   17.255223 H          1 MOL1         0.3769
      22    C7      15.229640   20.135165   21.982643 C.3        1 MOL1         0.2972
      23    H11     14.672514   21.010568   22.339758 H          1 MOL1         0.0751
      24    O6      16.489096   20.511417   21.392542 O.3        1 MOL1        -0.3740
      25    C8      15.514027   19.176145   23.162072 C.3        1 MOL1         0.1003
      26    H12     14.544500   18.874801   23.579709 H          1 MOL1         0.0783
      27    O7      16.292252   19.832429   24.180131 O.3        1 MOL1        -0.5519
      28    H13     16.212927   20.803521   24.019545 H          1 MOL1         0.3769
      29    C9      16.248304   17.909298   22.668577 C.3        1 MOL1         0.1053
      30    H14     17.247475   18.210407   22.340006 H          1 MOL1         0.0783
      31    O8      16.360148   16.988456   23.756470 O.3        1 MOL1        -0.5519
      32    H15     16.636405   17.541734   24.521276 H          1 MOL1         0.3769
      33    C10     15.543797   17.251050   21.454564 C.3        1 MOL1         0.1018
      34    H16     14.670769   16.687723   21.809836 H          1 MOL1         0.0783
      35    C11     15.111708   18.286971   20.377964 C.3        1 MOL1         0.1043
      36    H17     16.016328   18.631656   19.861549 H          1 MOL1         0.0783
      37    O9      14.459146   19.426239   20.990660 O.3        1 MOL1        -0.3740
      38    C12     14.168531   17.699833   19.300892 C.3        1 MOL1         0.0138
      39    H18     14.746730   17.011302   18.669850 H          1 MOL1         0.0794
      40    H19     13.819517   18.517670   18.656213 H          1 MOL1         0.0794
      41    O10     13.053599   17.008775   19.877758 O.3        1 MOL1        -0.5486
      42    H20     12.460976   16.734131   19.144204 H          1 MOL1         0.3769
      43    C13     18.554804   24.043677   20.572936 C.3        1 MOL1         0.2972
      44    H21     18.859883   25.042368   20.235016 H          1 MOL1         0.0751
      45    O11     19.694714   23.237359   20.936537 O.3        1 MOL1        -0.3740
      46    C14     17.557744   24.124266   21.763267 C.3        1 MOL1         0.1003
      47    H22     16.651880   24.616264   21.385439 H          1 MOL1         0.0783
      48    O12     18.068440   24.900314   22.856048 O.3        1 MOL1        -0.5519
      49    H23     18.854985   24.417097   23.213160 H          1 MOL1         0.3769
      50    C15     17.160120   22.699894   22.226166 C.3        1 MOL1         0.1053
      51    H24     18.059498   22.188950   22.595898 H          1 MOL1         0.0783
      52    O13     16.191143   22.790531   23.277102 O.3        1 MOL1        -0.5519
      53    H25     16.497546   23.534799   23.842948 H          1 MOL1         0.3769
      54    C16     16.598299   21.896351   21.022443 C.3        1 MOL1         0.1018
      55    H26     15.621733   22.314358   20.744879 H          1 MOL1         0.0783
      56    C17     17.539512   21.958484   19.789309 C.3        1 MOL1         0.1043
      57    H27     18.457873   21.407768   20.029290 H          1 MOL1         0.0783
      58    O14     17.871226   23.342869   19.507358 O.3        1 MOL1        -0.3740
      59    C18     16.949671   21.302052   18.514579 C.3        1 MOL1         0.0138
      60    H28     17.135925   20.221397   18.565174 H          1 MOL1         0.0794
      61    H29     17.495805   21.680022   17.640072 H          1 MOL1         0.0794
      62    O15     15.544302   21.536593   18.360016 O.3        1 MOL1        -0.5486
      63    H30     15.084479   21.045724   19.076759 H          1 MOL1         0.3769
      64    C19     23.547888   22.854612   22.088869 C.3        1 MOL1         0.2972
      65    H31     24.595710   22.896056   22.413387 H          1 MOL1         0.0751
      66    O16     23.203357   21.563349   21.542613 O.3        1 MOL1        -0.3740
      67    C20     22.606303   23.165122   23.275524 C.3        1 MOL1         0.1003
      68    H32     22.803072   24.197897   23.591794 H          1 MOL1         0.0783
      69    O17     22.832477   22.276489   24.382386 O.3        1 MOL1        -0.5519
      70    H33     23.572097   21.671465   24.127452 H          1 MOL1         0.3769
      71    C21     21.135293   23.067667   22.824498 C.3        1 MOL1         0.1053
      72    H34     20.940806   22.018522   22.589926 H          1 MOL1         0.0783
      73    O18     20.293057   23.468940   23.907075 O.3        1 MOL1        -0.5519
      74    H35     20.711011   23.071043   24.704291 H          1 MOL1         0.3769
      75    C22     20.834250   23.883244   21.539240 C.3        1 MOL1         0.1018
      76    H36     20.629958   24.926826   21.812209 H          1 MOL1         0.0783
      77    C23     21.970003   23.808608   20.472960 C.3        1 MOL1         0.1043
      78    H37     21.864837   22.853158   19.943179 H          1 MOL1         0.0783
      79    O19     23.287703   23.851581   21.080239 O.3        1 MOL1        -0.3740
      80    C24     21.881056   24.924103   19.404982 C.3        1 MOL1         0.0138
      81    H38     20.996549   24.738670   18.780711 H          1 MOL1         0.0794
      82    H39     22.761742   24.855487   18.752333 H          1 MOL1         0.0794
      83    O20     21.796727   26.228306   19.992374 O.3        1 MOL1        -0.5486
      84    H40     21.816980   26.885972   19.262956 H          1 MOL1         0.3769
      85    C25     24.853197   17.788189   20.931773 C.3        1 MOL1         0.2972
      86    H41     25.514670   16.948115   20.684762 H          1 MOL1         0.0751
      87    O21     23.485184   17.348569   21.080420 O.3        1 MOL1        -0.3740
      88    C26     25.331169   18.511631   22.223361 C.3        1 MOL1         0.1003
      89    H42     26.343141   18.885639   22.020094 H          1 MOL1         0.0783
      90    O22     25.387198   17.631648   23.355864 O.3        1 MOL1        -0.5519
      91    H43     24.457450   17.346125   23.543058 H          1 MOL1         0.3769
      92    C27     24.433828   19.731559   22.541314 C.3        1 MOL1         0.1053
      93    H44     23.434621   19.361465   22.805965 H          1 MOL1         0.0783
      94    O23     24.995372   20.448839   23.645088 O.3        1 MOL1        -0.5519
      95    H45     25.295109   19.754204   24.274588 H          1 MOL1         0.3769
      96    C28     24.299807   20.661313   21.308062 C.3        1 MOL1         0.1018
      97    H46     25.245342   21.199601   21.162569 H          1 MOL1         0.0783
      98    C29     23.962078   19.874864   20.013042 C.3        1 MOL1         0.1043
      99    H47     22.940707   19.488535   20.102433 H          1 MOL1         0.0783
     100    O24     24.879674   18.763304   19.865297 O.3        1 MOL1        -0.3740
     101    C30     23.998045   20.736215   18.725390 C.3        1 MOL1         0.0138
     102    H48     23.062268   21.306684   18.662660 H          1 MOL1         0.0794
     103    H49     24.023214   20.064510   17.857022 H          1 MOL1         0.0794
     104    O25     25.111213   21.637124   18.684366 O.3        1 MOL1        -0.5486
     105    H50     24.919380   22.367768   19.312189 H          1 MOL1         0.3769
     106    C31     21.142864   14.004329   21.851843 C.3        1 MOL1         0.2972
     107    H51     20.755701   13.018591   22.139895 H          1 MOL1         0.0751
     108    O26     20.167458   14.759869   21.102998 O.3        1 MOL1        -0.3740
     109    C32     21.571482   14.809793   23.108729 C.3        1 MOL1         0.1003
     110    H52     22.361482   14.233714   23.608103 H          1 MOL1         0.0783
     111    O27     20.484641   15.013283   24.026338 O.3        1 MOL1        -0.5519
     112    H53     19.801803   14.328223   23.828211 H          1 MOL1         0.3769
     113    C33     22.155396   16.178357   22.701138 C.3        1 MOL1         0.1053
     114    H54     21.338367   16.754460   22.254588 H          1 MOL1         0.0783
     115    O28     22.640935   16.846010   23.870051 O.3        1 MOL1        -0.5519
     116    H55     21.957660   16.659581   24.553023 H          1 MOL1         0.3769
     117    C34     23.278247   16.035681   21.644591 C.3        1 MOL1         0.1018
     118    H56     24.179481   15.651559   22.139929 H          1 MOL1         0.0783
     119    C35     22.873681   15.081639   20.485155 C.3        1 MOL1         0.1043
     120    H57     22.114606   15.587729   19.874438 H          1 MOL1         0.0783
     121    O29     22.313477   13.854790   21.019969 O.3        1 MOL1        -0.3740
     122    C36     24.047132   14.713836   19.545611 C.3        1 MOL1         0.0138
     123    H58     24.304806   15.598327   18.947517 H          1 MOL1         0.0794
     124    H59     23.706114   13.937006   18.848131 H          1 MOL1         0.0794
     125    O30     25.200013   14.263539   20.268236 O.3        1 MOL1        -0.5486
     126    H60     25.866341   13.965784   19.610952 H          1 MOL1         0.3769
     127    N1      19.959513   19.583444   25.521312 N.4        1 MOL1        -0.5919
     128    H1      19.734350   18.614617   25.767344 H          1 MOL1         0.3682
     129    H2      20.563791   19.952709   26.262534 H          1 MOL1         0.3682
     130    H3      19.081359   20.113088   25.549891 H          1 MOL1         0.3682
     131    C1      20.621789   19.676528   24.163063 C.3        1 MOL1         0.0252
     132    H4      21.537454   19.079116   24.187097 H          1 MOL1         0.0971
     133    H5      20.898287   20.718979   23.999914 H          1 MOL1         0.0971
     134    C2      19.704339   19.184571   23.031813 C.3        1 MOL1        -0.1369
     135    H6      19.434420   18.139050   23.235130 H          1 MOL1         0.0997
     136    H7      18.774437   19.767185   23.037154 H          1 MOL1         0.0997
     137    C3      20.361120   19.289066   21.637801 C.3        1 MOL1        -0.1329
     138    H8      21.379723   18.887731   21.683785 H          1 MOL1         0.0997
     139    H9      20.452979   20.340221   21.338442 H          1 MOL1         0.0997
     140    C4      19.550303   18.521465   20.571651 C.3        1 MOL1        -0.1305
     141    H10     19.413731   17.481274   20.896279 H          1 MOL1         0.0997
     142    H11     18.546280   18.956604   20.483085 H          1 MOL1         0.0997
     143    C5      20.244859   18.539831   19.194556 C.3        1 MOL1        -0.2320
     144    H12     21.222070   18.041523   19.241971 H          1 MOL1         0.1008
     145    H13     19.636424   18.014517   18.447295 H          1 MOL1         0.1008
     146    H14     20.398983   19.568293   18.843197 H          1 MOL1         0.1008
@<TRIPOS>BOND
    1     1     2    1
    2     1     3    1
    3     1     4    1
    4     4     5    1
    5     4     6    1
    6     6     7    1
    7     4     8    1
    8     8     9    1
    9     8    10    1
   10    10    11    1
   11     8    12    1
   12    12    13    1
   13    12    14    1
   14    14    15    1
   15     1    16    1
   16    14    16    1
   17    14    17    1
   18    17    18    1
   19    17    19    1
   20    17    20    1
   21    20    21    1
   22    22    23    1
   23    22    24    1
   24    22    25    1
   25    25    26    1
   26    25    27    1
   27    27    28    1
   28    25    29    1
   29    29    30    1
   30    29    31    1
   31    31    32    1
   32     3    33    1
   33    29    33    1
   34    33    34    1
   35    33    35    1
   36    35    36    1
   37    22    37    1
   38    35    37    1
   39    35    38    1
   40    38    39    1
   41    38    40    1
   42    38    41    1
   43    41    42    1
   44    43    44    1
   45    43    45    1
   46    43    46    1
   47    46    47    1
   48    46    48    1
   49    48    49    1
   50    46    50    1
   51    50    51    1
   52    50    52    1
   53    52    53    1
   54    24    54    1
   55    50    54    1
   56    54    55    1
   57    54    56    1
   58    56    57    1
   59    43    58    1
   60    56    58    1
   61    56    59    1
   62    59    60    1
   63    59    61    1
   64    59    62    1
   65    62    63    1
   66    64    65    1
   67    64    66    1
   68    64    67    1
   69    67    68    1
   70    67    69    1
   71    69    70    1
   72    67    71    1
   73    71    72    1
   74    71    73    1
   75    73    74    1
   76    45    75    1
   77    71    75    1
   78    75    76    1
   79    75    77    1
   80    77    78    1
   81    64    79    1
   82    77    79    1
   83    77    80    1
   84    80    81    1
   85    80    82    1
   86    80    83    1
   87    83    84    1
   88    85    86    1
   89    85    87    1
   90    85    88    1
   91    88    89    1
   92    88    90    1
   93    90    91    1
   94    88    92    1
   95    92    93    1
   96    92    94    1
   97    94    95    1
   98    66    96    1
   99    92    96    1
  100    96    97    1
  101    96    98    1
  102    98    99    1
  103    85   100    1
  104    98   100    1
  105    98   101    1
  106   101   102    1
  107   101   103    1
  108   101   104    1
  109   104   105    1
  110   106   107    1
  111    12   108    1
  112   106   108    1
  113   106   109    1
  114   109   110    1
  115   109   111    1
  116   111   112    1
  117   109   113    1
  118   113   114    1
  119   113   115    1
  120   115   116    1
  121    87   117    1
  122   113   117    1
  123   117   118    1
  124   117   119    1
  125   119   120    1
  126   106   121    1
  127   119   121    1
  128   119   122    1
  129   122   123    1
  130   122   124    1
  131   122   125    1
  132   125   126    1
  133   127   128    1
  134   127   129    1
  135   127   130    1
  136   127   131    1
  137   131   132    1
  138   131   133    1
  139   131   134    1
  140   134   135    1
  141   134   136    1
  142   134   137    1
  143   137   138    1
  144   137   139    1
  145   137   140    1
  146   140   141    1
  147   140   142    1
  148   140   143    1
  149   143   144    1
  150   143   145    1
  151   143   146    1
@<TRIPOS>SUBSTRUCTURE
       1 MOL1            1 RESIDUE      1      MOL     
       2 MOL1          146 RESIDUE      1      MOL     
@<SCITEGIC>MOL_PROPERTY
feprocess Rank
SciTegic.value.IntegerValue
1

@<SCITEGIC>MOL_PROPERTY
Conf_Id
SciTegic.value.IntegerValue
545

@<SCITEGIC>MOL_PROPERTY
Probability
SciTegic.value.DoubleValue
37.36

@<SCITEGIC>MOL_PROPERTY
G
SciTegic.value.DoubleValue
557.267

@<SCITEGIC>MOL_PROPERTY
E
SciTegic.value.DoubleValue
364.935

@<SCITEGIC>MOL_PROPERTY
-TS
SciTegic.value.DoubleValue
192.332

@<SCITEGIC>MOL_PROPERTY
U+W
SciTegic.value.DoubleValue
236.164

@<SCITEGIC>MOL_PROPERTY
U
SciTegic.value.DoubleValue
325.321

@<SCITEGIC>MOL_PROPERTY
W
SciTegic.value.DoubleValue
-89.156

@<SCITEGIC>MOL_PROPERTY
W(PB)
SciTegic.value.DoubleValue
-95.130

@<SCITEGIC>MOL_PROPERTY
W(SA)
SciTegic.value.DoubleValue
5.974

@<SCITEGIC>MOL_PROPERTY
Valence
SciTegic.value.DoubleValue
145.527

@<SCITEGIC>MOL_PROPERTY
Coulomb
SciTegic.value.DoubleValue
203.471

@<SCITEGIC>MOL_PROPERTY
VdW
SciTegic.value.DoubleValue
-23.677

@<SCITEGIC>MOL_PROPERTY
VdW6
SciTegic.value.DoubleValue
-177.456

@<SCITEGIC>MOL_PROPERTY
VdW12
SciTegic.value.DoubleValue
153.779

@<SCITEGIC>MOL_PROPERTY
Bond
SciTegic.value.DoubleValue
4.795

@<SCITEGIC>MOL_PROPERTY
Angle
SciTegic.value.DoubleValue
13.027

@<SCITEGIC>MOL_PROPERTY
Pdih
SciTegic.value.DoubleValue
127.705

@<SCITEGIC>MOL_PROPERTY
Idih
SciTegic.value.DoubleValue
0.000

@<SCITEGIC>MOL_PROPERTY
Tether
SciTegic.value.DoubleValue
0.000

@<TRIPOS>MOLECULE
CD_guest-s11_fast_vm2_rndm.mol2 : feprocess host+ligand conformer 2
         146         151           2
SMALL
USER_CHARGES
 
@<TRIPOS>ATOM
       1    C1      16.132611   15.079316   21.611122 C.3        1 MOL1         0.2972
       2    H1      15.045898   14.985188   21.734643 H          1 MOL1         0.0751
       3    O1      16.532854   16.443565   21.372113 O.3        1 MOL1        -0.3740
       4    C2      16.856379   14.582051   22.883197 C.3        1 MOL1         0.1003
       5    H2      16.644819   13.510523   22.994274 H          1 MOL1         0.0783
       6    O2      16.389727   15.286394   24.045488 O.3        1 MOL1        -0.5519
       7    H3      15.932183   16.103739   23.726552 H          1 MOL1         0.3769
       8    C3      18.380579   14.762804   22.724368 C.3        1 MOL1         0.1053
       9    H4      18.575562   15.838792   22.683680 H          1 MOL1         0.0783
      10    O3      19.051201   14.202350   23.856485 O.3        1 MOL1        -0.5519
      11    H5      18.506037   14.474838   24.628691 H          1 MOL1         0.3769
      12    C4      18.910742   14.133232   21.410979 C.3        1 MOL1         0.1018
      13    H6      19.028319   13.051895   21.561850 H          1 MOL1         0.0783
      14    C5      18.004361   14.417502   20.175323 C.3        1 MOL1         0.1043
      15    H7      18.192537   15.451687   19.861095 H          1 MOL1         0.0783
      16    O4      16.596359   14.281330   20.503060 O.3        1 MOL1        -0.3740
      17    C6      18.316517   13.513834   18.959016 C.3        1 MOL1         0.0138
      18    H8      19.291893   13.807055   18.547578 H          1 MOL1         0.0794
      19    H9      17.564747   13.701202   18.180475 H          1 MOL1         0.0794
      20    O5      18.334971   12.124930   19.310359 O.3        1 MOL1        -0.5486
      21    H10     18.459765   11.609735   18.483438 H          1 MOL1         0.3769
      22    C7      14.944741   20.198549   20.540009 C.3        1 MOL1         0.2972
      23    H11     14.314149   21.033907   20.209750 H          1 MOL1         0.0751
      24    O6      16.276755   20.646506   20.871943 O.3        1 MOL1        -0.3740
      25    C8      14.309869   19.461662   21.755006 C.3        1 MOL1         0.1003
      26    H12     13.343857   19.064307   21.417152 H          1 MOL1         0.0783
      27    O7      14.080608   20.337551   22.868445 O.3        1 MOL1        -0.5519
      28    H13     14.969468   20.639712   23.183665 H          1 MOL1         0.3769
      29    C9      15.189196   18.263024   22.185300 C.3        1 MOL1         0.1053
      30    H14     16.141784   18.654869   22.566368 H          1 MOL1         0.0783
      31    O8      14.526156   17.519856   23.213251 O.3        1 MOL1        -0.5519
      32    H15     14.156703   18.197323   23.823020 H          1 MOL1         0.3769
      33    C10     15.486069   17.343333   20.976227 C.3        1 MOL1         0.1018
      34    H16     14.564566   16.811641   20.704514 H          1 MOL1         0.0783
      35    C11     15.995175   18.136518   19.742524 C.3        1 MOL1         0.1043
      36    H17     16.985953   18.545171   19.978051 H          1 MOL1         0.0783
      37    O9      15.077601   19.227300   19.475768 O.3        1 MOL1        -0.3740
      38    C12     16.163028   17.285156   18.456047 C.3        1 MOL1         0.0138
      39    H18     17.188542   16.895382   18.430911 H          1 MOL1         0.0794
      40    H19     16.053331   17.943294   17.583788 H          1 MOL1         0.0794
      41    O10     15.237996   16.193864   18.369305 O.3        1 MOL1        -0.5486
      42    H20     15.529135   15.513170   19.019168 H          1 MOL1         0.3769
      43    C13     18.581603   23.902238   21.930846 C.3        1 MOL1         0.2972
      44    H21     18.980667   24.868426   22.265300 H          1 MOL1         0.0751
      45    O11     19.597995   23.095487   21.302963 O.3        1 MOL1        -0.3740
      46    C14     17.981850   23.123419   23.129708 C.3        1 MOL1         0.1003
      47    H22     17.173745   23.740674   23.543567 H          1 MOL1         0.0783
      48    O12     18.960738   22.876632   24.152924 O.3        1 MOL1        -0.5519
      49    H23     19.708822   23.502930   23.999009 H          1 MOL1         0.3769
      50    C15     17.375955   21.781564   22.664950 C.3        1 MOL1         0.1053
      51    H24     18.204259   21.140159   22.341118 H          1 MOL1         0.0783
      52    O13     16.697812   21.175856   23.769723 O.3        1 MOL1        -0.5519
      53    H25     17.291372   21.336649   24.537419 H          1 MOL1         0.3769
      54    C16     16.410982   21.954090   21.465608 C.3        1 MOL1         0.1018
      55    H26     15.453420   22.343867   21.834790 H          1 MOL1         0.0783
      56    C17     16.979007   22.900392   20.369406 C.3        1 MOL1         0.1043
      57    H27     17.781449   22.366981   19.843236 H          1 MOL1         0.0783
      58    O14     17.524171   24.103202   20.969854 O.3        1 MOL1        -0.3740
      59    C18     15.933809   23.313672   19.305575 C.3        1 MOL1         0.0138
      60    H28     15.713878   22.440821   18.676164 H          1 MOL1         0.0794
      61    H29     16.379404   24.079271   18.656330 H          1 MOL1         0.0794
      62    O15     14.723445   23.803846   19.895917 O.3        1 MOL1        -0.5486
      63    H30     14.145804   24.124694   19.169158 H          1 MOL1         0.3769
      64    C19     23.688390   22.864798   20.905717 C.3        1 MOL1         0.2972
      65    H31     24.760275   22.981738   20.700056 H          1 MOL1         0.0751
      66    O16     23.344579   21.490105   21.181508 O.3        1 MOL1        -0.3740
      67    C20     23.236224   23.759285   22.089001 C.3        1 MOL1         0.1003
      68    H32     23.370742   24.802093   21.772927 H          1 MOL1         0.0783
      69    O17     24.020240   23.532918   23.269101 O.3        1 MOL1        -0.5519
      70    H33     23.881066   22.589026   23.534667 H          1 MOL1         0.3769
      71    C21     21.731096   23.542125   22.379475 C.3        1 MOL1         0.1053
      72    H34     21.597585   22.511885   22.736979 H          1 MOL1         0.0783
      73    O18     21.316034   24.463290   23.394231 O.3        1 MOL1        -0.5519
      74    H35     22.063610   24.489445   24.034165 H          1 MOL1         0.3769
      75    C22     20.876701   23.725568   21.093149 C.3        1 MOL1         0.1018
      76    H36     20.766827   24.798046   20.888762 H          1 MOL1         0.0783
      77    C23     21.491648   23.031651   19.843427 C.3        1 MOL1         0.1043
      78    H37     21.333311   21.951027   19.939411 H          1 MOL1         0.0783
      79    O19     22.915749   23.287437   19.762676 O.3        1 MOL1        -0.3740
      80    C24     20.829961   23.456780   18.509258 C.3        1 MOL1         0.0138
      81    H38     19.820965   23.025183   18.466078 H          1 MOL1         0.0794
      82    H39     21.404657   23.018924   17.682357 H          1 MOL1         0.0794
      83    O20     20.754597   24.879372   18.354353 O.3        1 MOL1        -0.5486
      84    H40     20.029750   25.202558   18.931396 H          1 MOL1         0.3769
      85    C25     24.741403   17.752959   22.147891 C.3        1 MOL1         0.2972
      86    H41     25.308174   16.861985   22.447288 H          1 MOL1         0.0751
      87    O21     23.464208   17.405651   21.578792 O.3        1 MOL1        -0.3740
      88    C26     24.497038   18.662768   23.374100 C.3        1 MOL1         0.1003
      89    H42     25.480366   18.967333   23.755656 H          1 MOL1         0.0783
      90    O22     23.781551   17.960726   24.405183 O.3        1 MOL1        -0.5519
      91    H43     23.804903   17.000973   24.171712 H          1 MOL1         0.3769
      92    C27     23.719588   19.932715   22.961585 C.3        1 MOL1         0.1053
      93    H44     22.710737   19.627008   22.663035 H          1 MOL1         0.0783
      94    O23     23.640152   20.808642   24.088788 O.3        1 MOL1        -0.5519
      95    H45     23.502604   20.210060   24.856012 H          1 MOL1         0.3769
      96    C28     24.368747   20.651748   21.751167 C.3        1 MOL1         0.1018
      97    H46     25.232981   21.230720   22.102946 H          1 MOL1         0.0783
      98    C29     24.799653   19.670194   20.622709 C.3        1 MOL1         0.1043
      99    H47     23.891413   19.334629   20.106455 H          1 MOL1         0.0783
     100    O24     25.479955   18.512439   21.169202 O.3        1 MOL1        -0.3740
     101    C30     25.713129   20.321000   19.556756 C.3        1 MOL1         0.0138
     102    H48     25.112556   21.028185   18.968673 H          1 MOL1         0.0794
     103    H49     26.062200   19.539025   18.869068 H          1 MOL1         0.0794
     104    O25     26.828259   21.002851   20.144225 O.3        1 MOL1        -0.5486
     105    H50     27.401461   21.321806   19.413143 H          1 MOL1         0.3769
     106    C31     21.272594   13.957245   20.748739 C.3        1 MOL1         0.2972
     107    H51     20.937142   12.970484   20.404043 H          1 MOL1         0.0751
     108    O26     20.165903   14.788175   21.149607 O.3        1 MOL1        -0.3740
     109    C32     22.246655   13.834553   21.951548 C.3        1 MOL1         0.1003
     110    H52     23.123125   13.271979   21.604418 H          1 MOL1         0.0783
     111    O27     21.646195   13.129864   23.049207 O.3        1 MOL1        -0.5519
     112    H53     20.791717   13.583265   23.263492 H          1 MOL1         0.3769
     113    C33     22.728251   15.236006   22.404546 C.3        1 MOL1         0.1053
     114    H54     21.860443   15.784075   22.793009 H          1 MOL1         0.0783
     115    O28     23.707826   15.091996   23.438955 O.3        1 MOL1        -0.5519
     116    H55     23.366366   14.368984   24.012598 H          1 MOL1         0.3769
     117    C34     23.308993   16.026897   21.201342 C.3        1 MOL1         0.1018
     118    H56     24.268176   15.578497   20.911203 H          1 MOL1         0.0783
     119    C35     22.354662   16.011445   19.978309 C.3        1 MOL1         0.1043
     120    H57     21.458761   16.591333   20.232801 H          1 MOL1         0.0783
     121    O29     21.973175   14.644553   19.687159 O.3        1 MOL1        -0.3740
     122    C36     22.954843   16.657214   18.703097 C.3        1 MOL1         0.0138
     123    H58     22.819698   17.744533   18.770441 H          1 MOL1         0.0794
     124    H59     22.378640   16.316253   17.832703 H          1 MOL1         0.0794
     125    O30     24.345137   16.360005   18.523389 O.3        1 MOL1        -0.5486
     126    H60     24.839078   16.838523   19.225475 H          1 MOL1         0.3769
     127    N1      20.215604   18.244756   26.284163 N.4        1 MOL1        -0.5919
     128    H1      20.705743   18.170299   27.181314 H          1 MOL1         0.3682
     129    H2      19.226073   18.409511   26.492282 H          1 MOL1         0.3682
     130    H3      20.286389   17.330223   25.828382 H          1 MOL1         0.3682
     131    C1      20.800207   19.343843   25.418779 C.3        1 MOL1         0.0252
     132    H4      21.851817   19.106486   25.241361 H          1 MOL1         0.0971
     133    H5      20.750967   20.278177   25.984796 H          1 MOL1         0.0971
     134    C2      20.079927   19.527498   24.070584 C.3        1 MOL1        -0.1369
     135    H6      19.028631   19.779456   24.253745 H          1 MOL1         0.0997
     136    H7      20.525155   20.392151   23.563177 H          1 MOL1         0.0997
     137    C3      20.169474   18.270670   23.170624 C.3        1 MOL1        -0.1329
     138    H8      19.698302   17.428234   23.690222 H          1 MOL1         0.0997
     139    H9      21.219582   17.990065   23.024970 H          1 MOL1         0.0997
     140    C4      19.485320   18.447687   21.793890 C.3        1 MOL1        -0.1305
     141    H10     19.440699   17.474357   21.287763 H          1 MOL1         0.0997
     142    H11     18.444157   18.766183   21.937096 H          1 MOL1         0.0997
     143    C5      20.218885   19.448105   20.873882 C.3        1 MOL1        -0.2320
     144    H12     21.260240   19.143479   20.708481 H          1 MOL1         0.1008
     145    H13     19.723444   19.508587   19.896638 H          1 MOL1         0.1008
     146    H14     20.224793   20.455392   21.304458 H          1 MOL1         0.1008
@<TRIPOS>BOND
    1     1     2    1
    2     1     3    1
    3     1     4    1
    4     4     5    1
    5     4     6    1
    6     6     7    1
    7     4     8    1
    8     8     9    1
    9     8    10    1
   10    10    11    1
   11     8    12    1
   12    12    13    1
   13    12    14    1
   14    14    15    1
   15     1    16    1
   16    14    16    1
   17    14    17    1
   18    17    18    1
   19    17    19    1
   20    17    20    1
   21    20    21    1
   22    22    23    1
   23    22    24    1
   24    22    25    1
   25    25    26    1
   26    25    27    1
   27    27    28    1
   28    25    29    1
   29    29    30    1
   30    29    31    1
   31    31    32    1
   32     3    33    1
   33    29    33    1
   34    33    34    1
   35    33    35    1
   36    35    36    1
   37    22    37    1
   38    35    37    1
   39    35    38    1
   40    38    39    1
   41    38    40    1
   42    38    41    1
   43    41    42    1
   44    43    44    1
   45    43    45    1
   46    43    46    1
   47    46    47    1
   48    46    48    1
   49    48    49    1
   50    46    50    1
   51    50    51    1
   52    50    52    1
   53    52    53    1
   54    24    54    1
   55    50    54    1
   56    54    55    1
   57    54    56    1
   58    56    57    1
   59    43    58    1
   60    56    58    1
   61    56    59    1
   62    59    60    1
   63    59    61    1
   64    59    62    1
   65    62    63    1
   66    64    65    1
   67    64    66    1
   68    64    67    1
   69    67    68    1
   70    67    69    1
   71    69    70    1
   72    67    71    1
   73    71    72    1
   74    71    73    1
   75    73    74    1
   76    45    75    1
   77    71    75    1
   78    75    76    1
   79    75    77    1
   80    77    78    1
   81    64    79    1
   82    77    79    1
   83    77    80    1
   84    80    81    1
   85    80    82    1
   86    80    83    1
   87    83    84    1
   88    85    86    1
   89    85    87    1
   90    85    88    1
   91    88    89    1
   92    88    90    1
   93    90    91    1
   94    88    92    1
   95    92    93    1
   96    92    94    1
   97    94    95    1
   98    66    96    1
   99    92    96    1
  100    96    97    1
  101    96    98    1
  102    98    99    1
  103    85   100    1
  104    98   100    1
  105    98   101    1
  106   101   102    1
  107   101   103    1
  108   101   104    1
  109   104   105    1
  110   106   107    1
  111    12   108    1
  112   106   108    1
  113   106   109    1
  114   109   110    1
  115   109   111    1
  116   111   112    1
  117   109   113    1
  118   113   114    1
  119   113   115    1
  120   115   116    1
  121    87   117    1
  122   113   117    1
  123   117   118    1
  124   117   119    1
  125   119   120    1
  126   106   121    1
  127   119   121    1
  128   119   122    1
  129   122   123    1
  130   122   124    1
  131   122   125    1
  132   125   126    1
  133   127   128    1
  134   127   129    1
  135   127   130    1
  136   127   131    1
  137   131   132    1
  138   131   133    1
  139   131   134    1
  140   134   135    1
  141   134   136    1
  142   134   137    1
  143   137   138    1
  144   137   139    1
  145   137   140    1
  146   140   141    1
  147   140   142    1
  148   140   143    1
  149   143   144    1
  150   143   145    1
  151   143   146    1
@<TRIPOS>SUBSTRUCTURE
       1 MOL1            1 RESIDUE      1      MOL     
       2 MOL1          146 RESIDUE      1      MOL     
@<SCITEGIC>MOL_PROPERTY
feprocess Rank
SciTegic.value.IntegerValue
2

@<SCITEGIC>MOL_PROPERTY
Conf_Id
SciTegic.value.IntegerValue
837

@<SCITEGIC>MOL_PROPERTY
Probability
SciTegic.value.DoubleValue
24.49

@<SCITEGIC>MOL_PROPERTY
G
SciTegic.value.DoubleValue
557.519

@<SCITEGIC>MOL_PROPERTY
E
SciTegic.value.DoubleValue
365.714

@<SCITEGIC>MOL_PROPERTY
-TS
SciTegic.value.DoubleValue
191.805

@<SCITEGIC>MOL_PROPERTY
U+W
SciTegic.value.DoubleValue
236.943

@<SCITEGIC>MOL_PROPERTY
U
SciTegic.value.DoubleValue
329.848

@<SCITEGIC>MOL_PROPERTY
W
SciTegic.value.DoubleValue
-92.905

@<SCITEGIC>MOL_PROPERTY
W(PB)
SciTegic.value.DoubleValue
-99.030

@<SCITEGIC>MOL_PROPERTY
W(SA)
SciTegic.value.DoubleValue
6.125

@<SCITEGIC>MOL_PROPERTY
Valence
SciTegic.value.DoubleValue
146.822

@<SCITEGIC>MOL_PROPERTY
Coulomb
SciTegic.value.DoubleValue
205.893

@<SCITEGIC>MOL_PROPERTY
VdW
SciTegic.value.DoubleValue
-22.867

@<SCITEGIC>MOL_PROPERTY
VdW6
SciTegic.value.DoubleValue
-174.941

@<SCITEGIC>MOL_PROPERTY
VdW12
SciTegic.value.DoubleValue
152.074

@<SCITEGIC>MOL_PROPERTY
Bond
SciTegic.value.DoubleValue
4.700

@<SCITEGIC>MOL_PROPERTY
Angle
SciTegic.value.DoubleValue
12.207

@<SCITEGIC>MOL_PROPERTY
Pdih
SciTegic.value.DoubleValue
129.914

@<SCITEGIC>MOL_PROPERTY
Idih
SciTegic.value.DoubleValue
0.000

@<SCITEGIC>MOL_PROPERTY
Tether
SciTegic.value.DoubleValue
0.000

@<TRIPOS>MOLECULE
CD_guest-s11_fast_vm2_rndm.mol2 : feprocess host+ligand conformer 3
         146         151           2
SMALL
USER_CHARGES
 
@<TRIPOS>ATOM
       1    C1      16.229888   15.288682   20.636358 C.3        1 MOL1         0.2972
       2    H1      15.197721   15.099036   20.314320 H          1 MOL1         0.0751
       3    O1      16.413557   16.651145   21.068124 O.3        1 MOL1        -0.3740
       4    C2      16.640943   14.346756   21.798497 C.3        1 MOL1         0.1003
       5    H2      16.589192   13.319166   21.415502 H          1 MOL1         0.0783
       6    O2      15.753674   14.466862   22.920827 O.3        1 MOL1        -0.5519
       7    H3      15.728822   15.422622   23.180734 H          1 MOL1         0.3769
       8    C3      18.104562   14.620409   22.227499 C.3        1 MOL1         0.1053
       9    H4      18.157362   15.635332   22.644570 H          1 MOL1         0.0783
      10    O3      18.480113   13.667139   23.227830 O.3        1 MOL1        -0.5519
      11    H5      17.685268   13.577312   23.801765 H          1 MOL1         0.3769
      12    C4      19.055838   14.546185   21.000078 C.3        1 MOL1         0.1018
      13    H6      19.156255   13.498647   20.688041 H          1 MOL1         0.0783
      14    C5      18.527618   15.382970   19.803705 C.3        1 MOL1         0.1043
      15    H7      18.594970   16.444423   20.071749 H          1 MOL1         0.0783
      16    O4      17.142931   15.048045   19.543372 O.3        1 MOL1        -0.3740
      17    C6      19.345453   15.195815   18.501523 C.3        1 MOL1         0.0138
      18    H8      20.289606   15.746163   18.601878 H          1 MOL1         0.0794
      19    H9      18.790715   15.653051   17.671531 H          1 MOL1         0.0794
      20    O5      19.622680   13.820848   18.211056 O.3        1 MOL1        -0.5486
      21    H10     20.289359   13.510838   18.861416 H          1 MOL1         0.3769
      22    C7      14.647169   20.254964   21.746475 C.3        1 MOL1         0.2972
      23    H11     14.022407   21.138815   21.929513 H          1 MOL1         0.0751
      24    O6      16.013834   20.609495   21.459414 O.3        1 MOL1        -0.3740
      25    C8      14.638460   19.332981   22.987206 C.3        1 MOL1         0.1003
      26    H12     13.611285   18.971736   23.127585 H          1 MOL1         0.0783
      27    O7      15.056494   20.049872   24.160041 O.3        1 MOL1        -0.5519
      28    H13     15.527425   20.863751   23.852016 H          1 MOL1         0.3769
      29    C9      15.551919   18.110816   22.750255 C.3        1 MOL1         0.1053
      30    H14     16.585160   18.473513   22.706940 H          1 MOL1         0.0783
      31    O8      15.419422   17.201391   23.845788 O.3        1 MOL1        -0.5519
      32    H15     15.455360   17.769135   24.648357 H          1 MOL1         0.3769
      33    C10     15.228844   17.393099   21.413035 C.3        1 MOL1         0.1018
      34    H16     14.360467   16.739338   21.569473 H          1 MOL1         0.0783
      35    C11     14.965760   18.365840   20.224189 C.3        1 MOL1         0.1043
      36    H17     15.938986   18.742390   19.885430 H          1 MOL1         0.0783
      37    O9      14.146603   19.493250   20.629783 O.3        1 MOL1        -0.3740
      38    C12     14.298478   17.685933   19.005062 C.3        1 MOL1         0.0138
      39    H18     15.029369   17.011959   18.537962 H          1 MOL1         0.0794
      40    H19     14.048506   18.458681   18.265642 H          1 MOL1         0.0794
      41    O10     13.125387   16.950304   19.373115 O.3        1 MOL1        -0.5486
      42    H20     12.712325   16.614618   18.547624 H          1 MOL1         0.3769
      43    C13     18.458522   23.871841   20.677368 C.3        1 MOL1         0.2972
      44    H21     18.866489   24.846094   20.379377 H          1 MOL1         0.0751
      45    O11     19.516284   22.913067   20.909721 O.3        1 MOL1        -0.3740
      46    C14     17.553588   24.007901   21.937424 C.3        1 MOL1         0.1003
      47    H22     16.723234   24.670733   21.660976 H          1 MOL1         0.0783
      48    O12     18.244188   24.584237   23.055364 O.3        1 MOL1        -0.5519
      49    H23     18.928531   23.925472   23.335182 H          1 MOL1         0.3769
      50    C15     16.952096   22.637512   22.328104 C.3        1 MOL1         0.1053
      51    H24     17.771637   21.979612   22.646403 H          1 MOL1         0.0783
      52    O13     16.021760   22.805347   23.402687 O.3        1 MOL1        -0.5519
      53    H25     16.458173   23.427899   24.026567 H          1 MOL1         0.3769
      54    C16     16.245519   21.984376   21.116846 C.3        1 MOL1         0.1018
      55    H26     15.311746   22.526917   20.918540 H          1 MOL1         0.0783
      56    C17     17.124716   21.999157   19.837671 C.3        1 MOL1         0.1043
      57    H27     17.970488   21.322700   19.998476 H          1 MOL1         0.0783
      58    O14     17.626752   23.341316   19.618705 O.3        1 MOL1        -0.3740
      59    C18     16.404536   21.504079   18.555645 C.3        1 MOL1         0.0138
      60    H28     16.561177   20.421582   18.466961 H          1 MOL1         0.0794
      61    H29     16.884890   21.966612   17.683088 H          1 MOL1         0.0794
      62    O15     14.998764   21.781168   18.548637 O.3        1 MOL1        -0.5486
      63    H30     14.575335   21.155546   19.180486 H          1 MOL1         0.3769
      64    C19     23.514684   22.555816   21.995832 C.3        1 MOL1         0.2972
      65    H31     24.538051   22.720159   22.356934 H          1 MOL1         0.0751
      66    O16     23.394524   21.303631   21.291941 O.3        1 MOL1        -0.3740
      67    C20     22.511371   22.579336   23.179619 C.3        1 MOL1         0.1003
      68    H32     22.588476   23.569200   23.648195 H          1 MOL1         0.0783
      69    O17     22.804900   21.570468   24.159555 O.3        1 MOL1        -0.5519
      70    H33     23.740630   21.287760   24.019689 H          1 MOL1         0.3769
      71    C21     21.064441   22.396882   22.673403 C.3        1 MOL1         0.1053
      72    H34     20.982867   21.381301   22.268087 H          1 MOL1         0.0783
      73    O18     20.166690   22.553138   23.776251 O.3        1 MOL1        -0.5519
      74    H35     20.575419   22.025148   24.499082 H          1 MOL1         0.3769
      75    C22     20.720457   23.398161   21.542338 C.3        1 MOL1         0.1018
      76    H36     20.584927   24.394449   21.982468 H          1 MOL1         0.0783
      77    C23     21.831113   23.460283   20.456292 C.3        1 MOL1         0.1043
      78    H37     21.805712   22.521686   19.887448 H          1 MOL1         0.0783
      79    O19     23.133254   23.605174   21.080648 O.3        1 MOL1        -0.3740
      80    C24     21.642781   24.615189   19.443486 C.3        1 MOL1         0.0138
      81    H38     20.788660   24.374704   18.796145 H          1 MOL1         0.0794
      82    H39     22.533118   24.667175   18.802554 H          1 MOL1         0.0794
      83    O20     21.420976   25.874021   20.091559 O.3        1 MOL1        -0.5486
      84    H40     21.398228   26.567563   19.396481 H          1 MOL1         0.3769
      85    C25     25.234446   17.665991   20.891713 C.3        1 MOL1         0.2972
      86    H41     25.861570   16.786903   20.694845 H          1 MOL1         0.0751
      87    O21     23.850429   17.300106   21.087084 O.3        1 MOL1        -0.3740
      88    C26     25.747845   18.464763   22.117554 C.3        1 MOL1         0.1003
      89    H42     26.739692   18.854129   21.852709 H          1 MOL1         0.0783
      90    O22     25.875226   17.642800   23.286623 O.3        1 MOL1        -0.5519
      91    H43     24.963617   17.338172   23.525518 H          1 MOL1         0.3769
      92    C27     24.823266   19.674169   22.397773 C.3        1 MOL1         0.1053
      93    H44     23.846571   19.287485   22.721192 H          1 MOL1         0.0783
      94    O23     25.403052   20.464277   23.441930 O.3        1 MOL1        -0.5519
      95    H45     25.766593   19.811300   24.082846 H          1 MOL1         0.3769
      96    C28     24.604462   20.537837   21.122673 C.3        1 MOL1         0.1018
      97    H46     25.475582   21.188714   20.976256 H          1 MOL1         0.0783
      98    C29     24.376469   19.694628   19.836680 C.3        1 MOL1         0.1043
      99    H47     23.353845   19.305240   19.875643 H          1 MOL1         0.0783
     100    O24     25.292177   18.574586   19.773494 O.3        1 MOL1        -0.3740
     101    C30     24.494038   20.513914   18.527761 C.3        1 MOL1         0.0138
     102    H48     23.642145   21.204708   18.468298 H          1 MOL1         0.0794
     103    H49     24.411990   19.823337   17.678005 H          1 MOL1         0.0794
     104    O25     25.720696   21.249327   18.442651 O.3        1 MOL1        -0.5486
     105    H50     25.645086   22.026062   19.037114 H          1 MOL1         0.3769
     106    C31     21.264654   14.219499   21.993247 C.3        1 MOL1         0.2972
     107    H51     20.785622   13.278301   22.291097 H          1 MOL1         0.0751
     108    O26     20.332870   15.112267   21.349753 O.3        1 MOL1        -0.3740
     109    C32     21.855406   14.934712   23.232821 C.3        1 MOL1         0.1003
     110    H52     22.600534   14.259632   23.673645 H          1 MOL1         0.0783
     111    O27     20.836637   15.218967   24.206315 O.3        1 MOL1        -0.5519
     112    H53     20.066704   14.636055   23.998955 H          1 MOL1         0.3769
     113    C33     22.568379   16.242032   22.819098 C.3        1 MOL1         0.1053
     114    H54     21.806345   16.940276   22.454938 H          1 MOL1         0.0783
     115    O28     23.214650   16.798498   23.966682 O.3        1 MOL1        -0.5519
     116    H55     22.540137   16.740550   24.680773 H          1 MOL1         0.3769
     117    C34     23.586475   16.010217   21.672990 C.3        1 MOL1         0.1018
     118    H56     24.492095   15.550521   22.090573 H          1 MOL1         0.0783
     119    C35     23.013187   15.121535   20.532271 C.3        1 MOL1         0.1043
     120    H57     22.282942   15.719536   19.972309 H          1 MOL1         0.0783
     121    O29     22.345955   13.955900   21.075869 O.3        1 MOL1        -0.3740
     122    C36     24.085466   14.648084   19.521913 C.3        1 MOL1         0.0138
     123    H58     24.409584   15.512994   18.927375 H          1 MOL1         0.0794
     124    H59     23.623022   13.931464   18.829959 H          1 MOL1         0.0794
     125    O30     25.216678   14.054988   20.171774 O.3        1 MOL1        -0.5486
     126    H60     25.813421   13.707240   19.473413 H          1 MOL1         0.3769
     127    N1      20.688626   19.238581   16.757200 N.4        1 MOL1        -0.5919
     128    H1      20.606235   20.254952   16.656390 H          1 MOL1         0.3682
     129    H2      21.394660   18.928587   16.081305 H          1 MOL1         0.3682
     130    H3      19.796077   18.832831   16.459694 H          1 MOL1         0.3682
     131    C1      21.050077   18.836692   18.172452 C.3        1 MOL1         0.0252
     132    H4      22.021317   19.276363   18.405424 H          1 MOL1         0.0971
     133    H5      21.149562   17.748540   18.199191 H          1 MOL1         0.0971
     134    C2      20.011732   19.290301   19.212701 C.3        1 MOL1        -0.1369
     135    H6      19.940583   20.386267   19.203573 H          1 MOL1         0.0997
     136    H7      19.024985   18.898349   18.931922 H          1 MOL1         0.0997
     137    C3      20.370999   18.809114   20.635995 C.3        1 MOL1        -0.1329
     138    H8      21.310108   19.275219   20.964355 H          1 MOL1         0.0997
     139    H9      20.543824   17.725205   20.626786 H          1 MOL1         0.0997
     140    C4      19.249574   19.141402   21.643853 C.3        1 MOL1        -0.1305
     141    H10     19.086130   20.225762   21.675061 H          1 MOL1         0.0997
     142    H11     18.307397   18.691498   21.305636 H          1 MOL1         0.0997
     143    C5      19.576063   18.641523   23.066022 C.3        1 MOL1        -0.2320
     144    H12     20.527530   19.056648   23.424690 H          1 MOL1         0.1008
     145    H13     18.791752   18.943670   23.772008 H          1 MOL1         0.1008
     146    H14     19.645984   17.546890   23.093986 H          1 MOL1         0.1008
@<TRIPOS>BOND
    1     1     2    1
    2     1     3    1
    3     1     4    1
    4     4     5    1
    5     4     6    1
    6     6     7    1
    7     4     8    1
    8     8     9    1
    9     8    10    1
   10    10    11    1
   11     8    12    1
   12    12    13    1
   13    12    14    1
   14    14    15    1
   15     1    16    1
   16    14    16    1
   17    14    17    1
   18    17    18    1
   19    17    19    1
   20    17    20    1
   21    20    21    1
   22    22    23    1
   23    22    24    1
   24    22    25    1
   25    25    26    1
   26    25    27    1
   27    27    28    1
   28    25    29    1
   29    29    30    1
   30    29    31    1
   31    31    32    1
   32     3    33    1
   33    29    33    1
   34    33    34    1
   35    33    35    1
   36    35    36    1
   37    22    37    1
   38    35    37    1
   39    35    38    1
   40    38    39    1
   41    38    40    1
   42    38    41    1
   43    41    42    1
   44    43    44    1
   45    43    45    1
   46    43    46    1
   47    46    47    1
   48    46    48    1
   49    48    49    1
   50    46    50    1
   51    50    51    1
   52    50    52    1
   53    52    53    1
   54    24    54    1
   55    50    54    1
   56    54    55    1
   57    54    56    1
   58    56    57    1
   59    43    58    1
   60    56    58    1
   61    56    59    1
   62    59    60    1
   63    59    61    1
   64    59    62    1
   65    62    63    1
   66    64    65    1
   67    64    66    1
   68    64    67    1
   69    67    68    1
   70    67    69    1
   71    69    70    1
   72    67    71    1
   73    71    72    1
   74    71    73    1
   75    73    74    1
   76    45    75    1
   77    71    75    1
   78    75    76    1
   79    75    77    1
   80    77    78    1
   81    64    79    1
   82    77    79    1
   83    77    80    1
   84    80    81    1
   85    80    82    1
   86    80    83    1
   87    83    84    1
   88    85    86    1
   89    85    87    1
   90    85    88    1
   91    88    89    1
   92    88    90    1
   93    90    91    1
   94    88    92    1
   95    92    93    1
   96    92    94    1
   97    94    95    1
   98    66    96    1
   99    92    96    1
  100    96    97    1
  101    96    98    1
  102    98    99    1
  103    85   100    1
  104    98   100    1
  105    98   101    1
  106   101   102    1
  107   101   103    1
  108   101   104    1
  109   104   105    1
  110   106   107    1
  111    12   108    1
  112   106   108    1
  113   106   109    1
  114   109   110    1
  115   109   111    1
  116   111   112    1
  117   109   113    1
  118   113   114    1
  119   113   115    1
  120   115   116    1
  121    87   117    1
  122   113   117    1
  123   117   118    1
  124   117   119    1
  125   119   120    1
  126   106   121    1
  127   119   121    1
  128   119   122    1
  129   122   123    1
  130   122   124    1
  131   122   125    1
  132   125   126    1
  133   127   128    1
  134   127   129    1
  135   127   130    1
  136   127   131    1
  137   131   132    1
  138   131   133    1
  139   131   134    1
  140   134   135    1
  141   134   136    1
  142   134   137    1
  143   137   138    1
  144   137   139    1
  145   137   140    1
  146   140   141    1
  147   140   142    1
  148   140   143    1
  149   143   144    1
  150   143   145    1
  151   143   146    1
@<TRIPOS>SUBSTRUCTURE
       1 MOL1            1 RESIDUE      1      MOL     
       2 MOL1          146 RESIDUE      1      MOL     
@<SCITEGIC>MOL_PROPERTY
feprocess Rank
SciTegic.value.IntegerValue
3

@<SCITEGIC>MOL_PROPERTY
Conf_Id
SciTegic.value.IntegerValue
497

@<SCITEGIC>MOL_PROPERTY
Probability
SciTegic.value.DoubleValue
12.82

@<SCITEGIC>MOL_PROPERTY
G
SciTegic.value.DoubleValue
557.905

@<SCITEGIC>MOL_PROPERTY
E
SciTegic.value.DoubleValue
366.348

@<SCITEGIC>MOL_PROPERTY
-TS
SciTegic.value.DoubleValue
191.557

@<SCITEGIC>MOL_PROPERTY
U+W
SciTegic.value.DoubleValue
237.577

@<SCITEGIC>MOL_PROPERTY
U
SciTegic.value.DoubleValue
333.880

@<SCITEGIC>MOL_PROPERTY
W
SciTegic.value.DoubleValue
-96.303

@<SCITEGIC>MOL_PROPERTY
W(PB)
SciTegic.value.DoubleValue
-102.300

@<SCITEGIC>MOL_PROPERTY
W(SA)
SciTegic.value.DoubleValue
5.997

@<SCITEGIC>MOL_PROPERTY
Valence
SciTegic.value.DoubleValue
145.335

@<SCITEGIC>MOL_PROPERTY
Coulomb
SciTegic.value.DoubleValue
211.984

@<SCITEGIC>MOL_PROPERTY
VdW
SciTegic.value.DoubleValue
-23.438

@<SCITEGIC>MOL_PROPERTY
VdW6
SciTegic.value.DoubleValue
-173.442

@<SCITEGIC>MOL_PROPERTY
VdW12
SciTegic.value.DoubleValue
150.004

@<SCITEGIC>MOL_PROPERTY
Bond
SciTegic.value.DoubleValue
4.656

@<SCITEGIC>MOL_PROPERTY
Angle
SciTegic.value.DoubleValue
12.097

@<SCITEGIC>MOL_PROPERTY
Pdih
SciTegic.value.DoubleValue
128.581

@<SCITEGIC>MOL_PROPERTY
Idih
SciTegic.value.DoubleValue
0.000

@<SCITEGIC>MOL_PROPERTY
Tether
SciTegic.value.DoubleValue
0.000

@<TRIPOS>MOLECULE
CD_guest-s11_fast_vm2_rndm.mol2 : feprocess host+ligand conformer 4
         146         151           2
SMALL
USER_CHARGES
 
@<TRIPOS>ATOM
       1    C1      16.233384   15.246103   20.450683 C.3        1 MOL1         0.2972
       2    H1      15.234607   15.005315   20.064508 H          1 MOL1         0.0751
       3    O1      16.344266   16.642391   20.796571 O.3        1 MOL1        -0.3740
       4    C2      16.598292   14.363965   21.677837 C.3        1 MOL1         0.1003
       5    H2      16.642536   13.326619   21.320964 H          1 MOL1         0.0783
       6    O2      15.615672   14.439701   22.719954 O.3        1 MOL1        -0.5519
       7    H3      15.620621   15.370153   23.057548 H          1 MOL1         0.3769
       8    C3      18.005498   14.738745   22.207603 C.3        1 MOL1         0.1053
       9    H4      17.981017   15.779683   22.557654 H          1 MOL1         0.0783
      10    O3      18.353984   13.873123   23.294249 O.3        1 MOL1        -0.5519
      11    H5      17.527000   13.776628   23.818511 H          1 MOL1         0.3769
      12    C4      19.043461   14.631074   21.057890 C.3        1 MOL1         0.1018
      13    H6      19.182037   13.571445   20.806091 H          1 MOL1         0.0783
      14    C5      18.584757   15.393623   19.785650 C.3        1 MOL1         0.1043
      15    H7      18.591961   16.468367   20.007334 H          1 MOL1         0.0783
      16    O4      17.235765   14.985187   19.440357 O.3        1 MOL1        -0.3740
      17    C6      19.512449   15.187558   18.560730 C.3        1 MOL1         0.0138
      18    H8      20.356400   15.884419   18.645765 H          1 MOL1         0.0794
      19    H9      18.960635   15.462821   17.652099 H          1 MOL1         0.0794
      20    O5      20.009636   13.847905   18.451266 O.3        1 MOL1        -0.5486
      21    H10     20.626825   13.701936   19.202064 H          1 MOL1         0.3769
      22    C7      14.684583   20.192241   21.783098 C.3        1 MOL1         0.2972
      23    H11     14.106079   21.084010   22.057060 H          1 MOL1         0.0751
      24    O6      16.004790   20.531325   21.307342 O.3        1 MOL1        -0.3740
      25    C8      14.817243   19.245427   22.998420 C.3        1 MOL1         0.1003
      26    H12     13.807840   18.904472   23.263405 H          1 MOL1         0.0783
      27    O7      15.408288   19.908803   24.128290 O.3        1 MOL1        -0.5519
      28    H13     15.584105   20.844657   23.861016 H          1 MOL1         0.3769
      29    C9      15.662212   18.012578   22.620369 C.3        1 MOL1         0.1053
      30    H14     16.679914   18.365324   22.438163 H          1 MOL1         0.0783
      31    O8      15.672573   17.103741   23.723209 O.3        1 MOL1        -0.5519
      32    H15     15.761897   17.679952   24.516016 H          1 MOL1         0.3769
      33    C10     15.182463   17.318369   21.318310 C.3        1 MOL1         0.1018
      34    H16     14.365440   16.625223   21.557819 H          1 MOL1         0.0783
      35    C11     14.743819   18.317659   20.204140 C.3        1 MOL1         0.1043
      36    H17     15.653973   18.694902   19.720523 H          1 MOL1         0.0783
      37    O9      14.012655   19.448056   20.746911 O.3        1 MOL1        -0.3740
      38    C12     13.887735   17.661182   19.095543 C.3        1 MOL1         0.0138
      39    H18     14.526955   16.977035   18.521263 H          1 MOL1         0.0794
      40    H19     13.546021   18.444976   18.406219 H          1 MOL1         0.0794
      41    O10     12.767705   16.945687   19.630963 O.3        1 MOL1        -0.5486
      42    H20     12.232511   16.619776   18.874439 H          1 MOL1         0.3769
      43    C13     18.470822   23.842727   20.755168 C.3        1 MOL1         0.2972
      44    H21     18.877306   24.831811   20.508578 H          1 MOL1         0.0751
      45    O11     19.529187   22.885089   20.978262 O.3        1 MOL1        -0.3740
      46    C14     17.538370   23.918255   21.998338 C.3        1 MOL1         0.1003
      47    H22     16.718197   24.599711   21.737151 H          1 MOL1         0.0783
      48    O12     18.209848   24.433576   23.157443 O.3        1 MOL1        -0.5519
      49    H23     18.910745   23.776405   23.397909 H          1 MOL1         0.3769
      50    C15     16.918825   22.535599   22.312996 C.3        1 MOL1         0.1053
      51    H24     17.725921   21.864033   22.633865 H          1 MOL1         0.0783
      52    O13     15.959972   22.681581   23.365339 O.3        1 MOL1        -0.5519
      53    H25     16.376422   23.302242   24.005595 H          1 MOL1         0.3769
      54    C16     16.247699   21.927070   21.055193 C.3        1 MOL1         0.1018
      55    H26     15.317017   22.471403   20.848971 H          1 MOL1         0.0783
      56    C17     17.164631   22.003247   19.805041 C.3        1 MOL1         0.1043
      57    H27     18.006075   21.317590   19.954243 H          1 MOL1         0.0783
      58    O14     17.671287   23.352543   19.655265 O.3        1 MOL1        -0.3740
      59    C18     16.471498   21.572474   18.487661 C.3        1 MOL1         0.0138
      60    H28     16.460096   20.475680   18.443729 H          1 MOL1         0.0794
      61    H29     17.080394   21.921017   17.642878 H          1 MOL1         0.0794
      62    O15     15.133108   22.069641   18.369285 O.3        1 MOL1        -0.5486
      63    H30     14.570928   21.543695   18.979451 H          1 MOL1         0.3769
      64    C19     23.544694   22.543500   21.982426 C.3        1 MOL1         0.2972
      65    H31     24.574716   22.703585   22.325822 H          1 MOL1         0.0751
      66    O16     23.416354   21.310871   21.243043 O.3        1 MOL1        -0.3740
      67    C20     22.563973   22.534527   23.186731 C.3        1 MOL1         0.1003
      68    H32     22.641541   23.515085   23.674421 H          1 MOL1         0.0783
      69    O17     22.876879   21.507070   24.141129 O.3        1 MOL1        -0.5519
      70    H33     23.821688   21.256318   24.002680 H          1 MOL1         0.3769
      71    C21     21.111844   22.349918   22.700568 C.3        1 MOL1         0.1053
      72    H34     21.044848   21.346723   22.266987 H          1 MOL1         0.0783
      73    O18     20.227412   22.456960   23.820444 O.3        1 MOL1        -0.5519
      74    H35     20.691322   21.970084   24.538663 H          1 MOL1         0.3769
      75    C22     20.735008   23.375176   21.603298 C.3        1 MOL1         0.1018
      76    H36     20.588152   24.355859   22.074217 H          1 MOL1         0.0783
      77    C23     21.827390   23.483717   20.501545 C.3        1 MOL1         0.1043
      78    H37     21.799874   22.564554   19.901843 H          1 MOL1         0.0783
      79    O19     23.139786   23.617715   21.106915 O.3        1 MOL1        -0.3740
      80    C24     21.613487   24.669910   19.530904 C.3        1 MOL1         0.0138
      81    H38     20.751570   24.443489   18.888820 H          1 MOL1         0.0794
      82    H39     22.493245   24.751019   18.878491 H          1 MOL1         0.0794
      83    O20     21.391630   25.904479   20.224105 O.3        1 MOL1        -0.5486
      84    H40     21.352859   26.620520   19.552934 H          1 MOL1         0.3769
      85    C25     25.221671   17.656418   20.835188 C.3        1 MOL1         0.2972
      86    H41     25.832145   16.766455   20.634940 H          1 MOL1         0.0751
      87    O21     23.837729   17.311572   21.064638 O.3        1 MOL1        -0.3740
      88    C26     25.773600   18.463182   22.038070 C.3        1 MOL1         0.1003
      89    H42     26.760967   18.841908   21.742727 H          1 MOL1         0.0783
      90    O22     25.925929   17.653784   23.212976 O.3        1 MOL1        -0.5519
      91    H43     25.016382   17.378318   23.491395 H          1 MOL1         0.3769
      92    C27     24.865469   19.682004   22.328478 C.3        1 MOL1         0.1053
      93    H44     23.894592   19.306096   22.680029 H          1 MOL1         0.0783
      94    O23     25.479162   20.474717   23.351407 O.3        1 MOL1        -0.5519
      95    H45     25.861719   19.823105   23.982617 H          1 MOL1         0.3769
      96    C28     24.618852   20.536499   21.051453 C.3        1 MOL1         0.1018
      97    H46     25.487903   21.185112   20.884859 H          1 MOL1         0.0783
      98    C29     24.366580   19.685980   19.771052 C.3        1 MOL1         0.1043
      99    H47     23.338395   19.309482   19.809500 H          1 MOL1         0.0783
     100    O24     25.268056   18.553095   19.706378 O.3        1 MOL1        -0.3740
     101    C30     24.485921   20.495826   18.456793 C.3        1 MOL1         0.0138
     102    H48     23.647572   21.203637   18.403995 H          1 MOL1         0.0794
     103    H49     24.378127   19.802500   17.612147 H          1 MOL1         0.0794
     104    O25     25.727330   21.204177   18.352452 O.3        1 MOL1        -0.5486
     105    H50     25.675613   21.985998   18.942757 H          1 MOL1         0.3769
     106    C31     21.198211   14.344518   22.142721 C.3        1 MOL1         0.2972
     107    H51     20.698720   13.431681   22.491202 H          1 MOL1         0.0751
     108    O26     20.278224   15.234352   21.480638 O.3        1 MOL1        -0.3740
     109    C32     21.819525   15.095402   23.343409 C.3        1 MOL1         0.1003
     110    H52     22.541603   14.416609   23.815699 H          1 MOL1         0.0783
     111    O27     20.807095   15.460364   24.299705 O.3        1 MOL1        -0.5519
     112    H53     20.016768   14.900306   24.107741 H          1 MOL1         0.3769
     113    C33     22.574510   16.355710   22.864678 C.3        1 MOL1         0.1053
     114    H54     21.832366   17.061602   22.479592 H          1 MOL1         0.0783
     115    O28     23.252832   16.937626   23.980503 O.3        1 MOL1        -0.5519
     116    H55     22.593921   16.913235   24.710335 H          1 MOL1         0.3769
     117    C34     23.563984   16.051623   21.710088 C.3        1 MOL1         0.1018
     118    H56     24.469283   15.589951   22.125985 H          1 MOL1         0.0783
     119    C35     22.946268   15.133306   20.617218 C.3        1 MOL1         0.1043
     120    H57     22.225609   15.730715   20.044793 H          1 MOL1         0.0783
     121    O29     22.252520   14.011445   21.216577 O.3        1 MOL1        -0.3740
     122    C36     23.986799   14.587960   19.610109 C.3        1 MOL1         0.0138
     123    H58     24.328354   15.419012   18.978224 H          1 MOL1         0.0794
     124    H59     23.491536   13.860767   18.952705 H          1 MOL1         0.0794
     125    O30     25.108797   13.984350   20.265979 O.3        1 MOL1        -0.5486
     126    H60     25.684480   13.593293   19.572861 H          1 MOL1         0.3769
     127    N1      19.118770   18.792147   25.499039 N.4        1 MOL1        -0.5919
     128    H1      18.458590   19.144674   26.199609 H          1 MOL1         0.3682
     129    H2      20.055893   19.088667   25.788433 H          1 MOL1         0.3682
     130    H3      19.098742   17.767607   25.547826 H          1 MOL1         0.3682
     131    C1      18.778015   19.290093   24.110496 C.3        1 MOL1         0.0252
     132    H4      18.834221   20.382236   24.115245 H          1 MOL1         0.0971
     133    H5      17.747473   19.002028   23.898738 H          1 MOL1         0.0971
     134    C2      19.722162   18.721336   23.038697 C.3        1 MOL1        -0.1369
     135    H6      20.750043   19.016322   23.291253 H          1 MOL1         0.0997
     136    H7      19.683903   17.624883   23.063198 H          1 MOL1         0.0997
     137    C3      19.377227   19.210220   21.614694 C.3        1 MOL1        -0.1329
     138    H8      19.211462   20.293363   21.630978 H          1 MOL1         0.0997
     139    H9      18.439426   18.755828   21.272739 H          1 MOL1         0.0997
     140    C4      20.503702   18.874208   20.614397 C.3        1 MOL1        -0.1305
     141    H10     21.452683   19.283091   20.985570 H          1 MOL1         0.0997
     142    H11     20.633869   17.785834   20.552079 H          1 MOL1         0.0997
     143    C5      20.217075   19.442002   19.209190 C.3        1 MOL1        -0.2320
     144    H12     20.159066   20.538137   19.233827 H          1 MOL1         0.1008
     145    H13     21.015374   19.164030   18.509203 H          1 MOL1         0.1008
     146    H14     19.269410   19.055398   18.812430 H          1 MOL1         0.1008
@<TRIPOS>BOND
    1     1     2    1
    2     1     3    1
    3     1     4    1
    4     4     5    1
    5     4     6    1
    6     6     7    1
    7     4     8    1
    8     8     9    1
    9     8    10    1
   10    10    11    1
   11     8    12    1
   12    12    13    1
   13    12    14    1
   14    14    15    1
   15     1    16    1
   16    14    16    1
   17    14    17    1
   18    17    18    1
   19    17    19    1
   20    17    20    1
   21    20    21    1
   22    22    23    1
   23    22    24    1
   24    22    25    1
   25    25    26    1
   26    25    27    1
   27    27    28    1
   28    25    29    1
   29    29    30    1
   30    29    31    1
   31    31    32    1
   32     3    33    1
   33    29    33    1
   34    33    34    1
   35    33    35    1
   36    35    36    1
   37    22    37    1
   38    35    37    1
   39    35    38    1
   40    38    39    1
   41    38    40    1
   42    38    41    1
   43    41    42    1
   44    43    44    1
   45    43    45    1
   46    43    46    1
   47    46    47    1
   48    46    48    1
   49    48    49    1
   50    46    50    1
   51    50    51    1
   52    50    52    1
   53    52    53    1
   54    24    54    1
   55    50    54    1
   56    54    55    1
   57    54    56    1
   58    56    57    1
   59    43    58    1
   60    56    58    1
   61    56    59    1
   62    59    60    1
   63    59    61    1
   64    59    62    1
   65    62    63    1
   66    64    65    1
   67    64    66    1
   68    64    67    1
   69    67    68    1
   70    67    69    1
   71    69    70    1
   72    67    71    1
   73    71    72    1
   74    71    73    1
   75    73    74    1
   76    45    75    1
   77    71    75    1
   78    75    76    1
   79    75    77    1
   80    77    78    1
   81    64    79    1
   82    77    79    1
   83    77    80    1
   84    80    81    1
   85    80    82    1
   86    80    83    1
   87    83    84    1
   88    85    86    1
   89    85    87    1
   90    85    88    1
   91    88    89    1
   92    88    90    1
   93    90    91    1
   94    88    92    1
   95    92    93    1
   96    92    94    1
   97    94    95    1
   98    66    96    1
   99    92    96    1
  100    96    97    1
  101    96    98    1
  102    98    99    1
  103    85   100    1
  104    98   100    1
  105    98   101    1
  106   101   102    1
  107   101   103    1
  108   101   104    1
  109   104   105    1
  110   106   107    1
  111    12   108    1
  112   106   108    1
  113   106   109    1
  114   109   110    1
  115   109   111    1
  116   111   112    1
  117   109   113    1
  118   113   114    1
  119   113   115    1
  120   115   116    1
  121    87   117    1
  122   113   117    1
  123   117   118    1
  124   117   119    1
  125   119   120    1
  126   106   121    1
  127   119   121    1
  128   119   122    1
  129   122   123    1
  130   122   124    1
  131   122   125    1
  132   125   126    1
  133   127   128    1
  134   127   129    1
  135   127   130    1
  136   127   131    1
  137   131   132    1
  138   131   133    1
  139   131   134    1
  140   134   135    1
  141   134   136    1
  142   134   137    1
  143   137   138    1
  144   137   139    1
  145   137   140    1
  146   140   141    1
  147   140   142    1
  148   140   143    1
  149   143   144    1
  150   143   145    1
  151   143   146    1
@<TRIPOS>SUBSTRUCTURE
       1 MOL1            1 RESIDUE      1      MOL     
       2 MOL1          146 RESIDUE      1      MOL     
@<SCITEGIC>MOL_PROPERTY
feprocess Rank
SciTegic.value.IntegerValue
4

@<SCITEGIC>MOL_PROPERTY
Conf_Id
SciTegic.value.IntegerValue
897

@<SCITEGIC>MOL_PROPERTY
Probability
SciTegic.value.DoubleValue
9.50

@<SCITEGIC>MOL_PROPERTY
G
SciTegic.value.DoubleValue
558.084

@<SCITEGIC>MOL_PROPERTY
E
SciTegic.value.DoubleValue
366.008

@<SCITEGIC>MOL_PROPERTY
-TS
SciTegic.value.DoubleValue
192.075

@<SCITEGIC>MOL_PROPERTY
U+W
SciTegic.value.DoubleValue
237.237

@<SCITEGIC>MOL_PROPERTY
U
SciTegic.value.DoubleValue
327.186

@<SCITEGIC>MOL_PROPERTY
W
SciTegic.value.DoubleValue
-89.949

@<SCITEGIC>MOL_PROPERTY
W(PB)
SciTegic.value.DoubleValue
-95.934

@<SCITEGIC>MOL_PROPERTY
W(SA)
SciTegic.value.DoubleValue
5.985

@<SCITEGIC>MOL_PROPERTY
Valence
SciTegic.value.DoubleValue
146.045

@<SCITEGIC>MOL_PROPERTY
Coulomb
SciTegic.value.DoubleValue
204.863

@<SCITEGIC>MOL_PROPERTY
VdW
SciTegic.value.DoubleValue
-23.721

@<SCITEGIC>MOL_PROPERTY
VdW6
SciTegic.value.DoubleValue
-177.515

@<SCITEGIC>MOL_PROPERTY
VdW12
SciTegic.value.DoubleValue
153.794

@<SCITEGIC>MOL_PROPERTY
Bond
SciTegic.value.DoubleValue
4.795

@<SCITEGIC>MOL_PROPERTY
Angle
SciTegic.value.DoubleValue
13.234

@<SCITEGIC>MOL_PROPERTY
Pdih
SciTegic.value.DoubleValue
128.016

@<SCITEGIC>MOL_PROPERTY
Idih
SciTegic.value.DoubleValue
0.000

@<SCITEGIC>MOL_PROPERTY
Tether
SciTegic.value.DoubleValue
0.000

@<TRIPOS>MOLECULE
CD_guest-s11_fast_vm2_rndm.mol2 : feprocess host+ligand conformer 5
         146         151           2
SMALL
USER_CHARGES
 
@<TRIPOS>ATOM
       1    C1      16.340118   15.287133   21.774870 C.3        1 MOL1         0.2972
       2    H1      15.262715   15.217825   21.972501 H          1 MOL1         0.0751
       3    O1      16.713094   16.598014   21.307840 O.3        1 MOL1        -0.3740
       4    C2      17.137581   14.985487   23.065532 C.3        1 MOL1         0.1003
       5    H2      16.892953   13.958318   23.366238 H          1 MOL1         0.0783
       6    O2      16.767759   15.892123   24.120959 O.3        1 MOL1        -0.5519
       7    H3      15.892076   16.276004   23.869339 H          1 MOL1         0.3769
       8    C3      18.658454   15.063736   22.791699 C.3        1 MOL1         0.1053
       9    H4      18.911267   16.106814   22.573786 H          1 MOL1         0.0783
      10    O3      19.365379   14.638703   23.959759 O.3        1 MOL1        -0.5519
      11    H5      18.844520   14.998236   24.711532 H          1 MOL1         0.3769
      12    C4      19.076100   14.214574   21.563193 C.3        1 MOL1         0.1018
      13    H6      19.127563   13.160433   21.866732 H          1 MOL1         0.0783
      14    C5      18.114391   14.380150   20.350725 C.3        1 MOL1         0.1043
      15    H7      18.307848   15.362542   19.901903 H          1 MOL1         0.0783
      16    O4      16.729501   14.324391   20.774585 O.3        1 MOL1        -0.3740
      17    C6      18.332051   13.323853   19.240998 C.3        1 MOL1         0.0138
      18    H8      19.287708   13.534506   18.741988 H          1 MOL1         0.0794
      19    H9      17.539837   13.437037   18.488793 H          1 MOL1         0.0794
      20    O5      18.339669   11.988196   19.760174 O.3        1 MOL1        -0.5486
      21    H10     18.401945   11.372294   18.997584 H          1 MOL1         0.3769
      22    C7      14.944069   20.275191   20.541669 C.3        1 MOL1         0.2972
      23    H11     14.306417   21.098380   20.194460 H          1 MOL1         0.0751
      24    O6      16.196641   20.756740   21.069181 O.3        1 MOL1        -0.3740
      25    C8      14.234804   19.443226   21.644248 C.3        1 MOL1         0.1003
      26    H12     13.317510   19.031678   21.203467 H          1 MOL1         0.0783
      27    O7      13.888927   20.257767   22.775962 O.3        1 MOL1        -0.5519
      28    H13     14.720372   20.692098   23.094697 H          1 MOL1         0.3769
      29    C9      15.124953   18.257852   22.092392 C.3        1 MOL1         0.1053
      30    H14     15.998266   18.677290   22.601029 H          1 MOL1         0.0783
      31    O8      14.396849   17.427323   23.004114 O.3        1 MOL1        -0.5519
      32    H15     13.918197   18.054355   23.592164 H          1 MOL1         0.3769
      33    C10     15.626346   17.434560   20.875394 C.3        1 MOL1         0.1018
      34    H16     14.792367   16.842597   20.476555 H          1 MOL1         0.0783
      35    C11     16.195947   18.334531   19.747274 C.3        1 MOL1         0.1043
      36    H17     17.129612   18.785591   20.105269 H          1 MOL1         0.0783
      37    O9      15.246031   19.384115   19.445157 O.3        1 MOL1        -0.3740
      38    C12     16.545337   17.570170   18.444960 C.3        1 MOL1         0.0138
      39    H18     17.529425   17.100907   18.572491 H          1 MOL1         0.0794
      40    H19     16.640632   18.297035   17.627397 H          1 MOL1         0.0794
      41    O10     15.579163   16.568392   18.105003 O.3        1 MOL1        -0.5486
      42    H20     15.667737   15.841576   18.759998 H          1 MOL1         0.3769
      43    C13     18.396419   24.112179   21.879718 C.3        1 MOL1         0.2972
      44    H21     18.806344   25.104707   22.106670 H          1 MOL1         0.0751
      45    O11     19.432669   23.171520   21.521386 O.3        1 MOL1        -0.3740
      46    C14     17.622186   23.562645   23.104301 C.3        1 MOL1         0.1003
      47    H22     16.781611   24.242186   23.296353 H          1 MOL1         0.0783
      48    O12     18.459813   23.503529   24.269880 O.3        1 MOL1        -0.5519
      49    H23     19.393754   23.631369   23.968699 H          1 MOL1         0.3769
      50    C15     17.046893   22.163928   22.793451 C.3        1 MOL1         0.1053
      51    H24     17.897031   21.484573   22.691765 H          1 MOL1         0.0783
      52    O13     16.219939   21.724666   23.875460 O.3        1 MOL1        -0.5519
      53    H25     16.722059   21.964050   24.686647 H          1 MOL1         0.3769
      54    C16     16.246311   22.139416   21.467319 C.3        1 MOL1         0.1018
      55    H26     15.246164   22.551271   21.657245 H          1 MOL1         0.0783
      56    C17     16.941722   22.918654   20.312171 C.3        1 MOL1         0.1043
      57    H27     17.777809   22.307082   19.949111 H          1 MOL1         0.0783
      58    O14     17.460060   24.187137   20.785480 O.3        1 MOL1        -0.3740
      59    C18     16.019933   23.189348   19.098904 C.3        1 MOL1         0.0138
      60    H28     15.850418   22.241357   18.570684 H          1 MOL1         0.0794
      61    H29     16.544300   23.859404   18.404399 H          1 MOL1         0.0794
      62    O15     14.764517   23.759842   19.488704 O.3        1 MOL1        -0.5486
      63    H30     14.271837   23.984843   18.669301 H          1 MOL1         0.3769
      64    C19     23.508511   22.775893   20.904317 C.3        1 MOL1         0.2972
      65    H31     24.571990   22.907924   20.667379 H          1 MOL1         0.0751
      66    O16     23.178009   21.377194   21.054795 O.3        1 MOL1        -0.3740
      67    C20     23.118429   23.573182   22.180584 C.3        1 MOL1         0.1003
      68    H32     23.283551   24.634971   21.955364 H          1 MOL1         0.0783
      69    O17     23.919977   23.216722   23.316121 O.3        1 MOL1        -0.5519
      70    H33     23.697002   22.277684   23.537370 H          1 MOL1         0.3769
      71    C21     21.616337   23.386739   22.498402 C.3        1 MOL1         0.1053
      72    H34     21.450276   22.332227   22.755603 H          1 MOL1         0.0783
      73    O18     21.255187   24.215939   23.607264 O.3        1 MOL1        -0.5519
      74    H35     21.999661   24.130400   24.244663 H          1 MOL1         0.3769
      75    C22     20.737276   23.731878   21.270260 C.3        1 MOL1         0.1018
      76    H36     20.699177   24.822850   21.152205 H          1 MOL1         0.0783
      77    C23     21.267996   23.103173   19.950431 C.3        1 MOL1         0.1043
      78    H37     21.053993   22.028175   19.965711 H          1 MOL1         0.0783
      79    O19     22.700595   23.298862   19.829231 O.3        1 MOL1        -0.3740
      80    C24     20.588051   23.687958   18.689420 C.3        1 MOL1         0.0138
      81    H38     19.531228   23.390553   18.694142 H          1 MOL1         0.0794
      82    H39     21.051620   23.239101   17.800810 H          1 MOL1         0.0794
      83    O20     20.687979   25.116772   18.634917 O.3        1 MOL1        -0.5486
      84    H40     20.258592   25.414721   17.803725 H          1 MOL1         0.3769
      85    C25     24.786404   17.653058   21.990985 C.3        1 MOL1         0.2972
      86    H41     25.427559   16.824410   22.317677 H          1 MOL1         0.0751
      87    O21     23.627281   17.176318   21.276052 O.3        1 MOL1        -0.3740
      88    C26     24.329731   18.498954   23.209817 C.3        1 MOL1         0.1003
      89    H42     25.235979   18.888335   23.691934 H          1 MOL1         0.0783
      90    O22     23.583512   17.723654   24.162125 O.3        1 MOL1        -0.5519
      91    H43     23.824044   16.776607   24.020023 H          1 MOL1         0.3769
      92    C27     23.473649   19.696593   22.748998 C.3        1 MOL1         0.1053
      93    H44     22.556143   19.288746   22.313780 H          1 MOL1         0.0783
      94    O23     23.158918   20.504177   23.886992 O.3        1 MOL1        -0.5519
      95    H45     22.935238   19.853649   24.590763 H          1 MOL1         0.3769
      96    C28     24.183210   20.530157   21.654993 C.3        1 MOL1         0.1018
      97    H46     24.990153   21.111014   22.120616 H          1 MOL1         0.0783
      98    C29     24.767565   19.629200   20.530459 C.3        1 MOL1         0.1043
      99    H47     23.929975   19.225754   19.946427 H          1 MOL1         0.0783
     100    O24     25.518735   18.528451   21.105997 O.3        1 MOL1        -0.3740
     101    C30     25.689065   20.390554   19.547638 C.3        1 MOL1         0.0138
     102    H48     25.067821   21.055743   18.932705 H          1 MOL1         0.0794
     103    H49     26.156667   19.662844   18.870911 H          1 MOL1         0.0794
     104    O25     26.692284   21.155359   20.227919 O.3        1 MOL1        -0.5486
     105    H50     27.285811   21.541010   19.546964 H          1 MOL1         0.3769
     106    C31     21.379307   13.745550   20.848002 C.3        1 MOL1         0.2972
     107    H51     20.952050   12.758006   20.630780 H          1 MOL1         0.0751
     108    O26     20.355056   14.721222   21.133743 O.3        1 MOL1        -0.3740
     109    C32     22.359321   13.684624   22.045752 C.3        1 MOL1         0.1003
     110    H52     23.191439   13.032972   21.748496 H          1 MOL1         0.0783
     111    O27     21.737013   13.136048   23.217350 O.3        1 MOL1        -0.5519
     112    H53     20.952356   13.703277   23.428043 H          1 MOL1         0.3769
     113    C33     22.938629   15.089237   22.345024 C.3        1 MOL1         0.1053
     114    H54     22.119537   15.724301   22.710738 H          1 MOL1         0.0783
     115    O28     23.942304   14.957188   23.358017 O.3        1 MOL1        -0.5519
     116    H55     23.580471   14.291154   23.986634 H          1 MOL1         0.3769
     117    C34     23.533203   15.750906   21.067545 C.3        1 MOL1         0.1018
     118    H56     24.518395   15.312171   20.865383 H          1 MOL1         0.0783
     119    C35     22.631586   15.572425   19.812415 C.3        1 MOL1         0.1043
     120    H57     21.773029   16.244544   19.912146 H          1 MOL1         0.0783
     121    O29     22.142270   14.213282   19.716587 O.3        1 MOL1        -0.3740
     122    C36     23.333753   15.947922   18.484334 C.3        1 MOL1         0.0138
     123    H58     23.471197   17.037353   18.457047 H          1 MOL1         0.0794
     124    H59     22.666545   15.684816   17.652873 H          1 MOL1         0.0794
     125    O30     24.599228   15.295716   18.322052 O.3        1 MOL1        -0.5486
     126    H60     25.242397   15.744131   18.911873 H          1 MOL1         0.3769
     127    N1      18.477017   18.146564   24.903956 N.4        1 MOL1        -0.5919
     128    H1      19.317498   17.583301   25.063403 H          1 MOL1         0.3682
     129    H2      18.430318   18.855014   25.642184 H          1 MOL1         0.3682
     130    H3      17.674811   17.508563   25.021277 H          1 MOL1         0.3682
     131    C1      18.469442   18.754456   23.519001 C.3        1 MOL1         0.0252
     132    H4      17.641389   19.465643   23.459200 H          1 MOL1         0.0971
     133    H5      18.272516   17.946692   22.811426 H          1 MOL1         0.0971
     134    C2      19.786987   19.451685   23.149796 C.3        1 MOL1        -0.1369
     135    H6      19.866928   20.395139   23.706911 H          1 MOL1         0.0997
     136    H7      20.633570   18.828661   23.467061 H          1 MOL1         0.0997
     137    C3      19.894527   19.729601   21.632557 C.3        1 MOL1        -0.1329
     138    H8      20.754471   20.386688   21.462793 H          1 MOL1         0.0997
     139    H9      19.014080   20.279499   21.277547 H          1 MOL1         0.0997
     140    C4      20.070121   18.441362   20.798168 C.3        1 MOL1        -0.1305
     141    H10     20.917093   17.864270   21.192204 H          1 MOL1         0.0997
     142    H11     19.184046   17.800921   20.892235 H          1 MOL1         0.0997
     143    C5      20.310697   18.763765   19.308477 C.3        1 MOL1        -0.2320
     144    H12     19.479988   19.348254   18.892268 H          1 MOL1         0.1008
     145    H13     21.234822   19.342350   19.177497 H          1 MOL1         0.1008
     146    H14     20.402052   17.842216   18.719811 H          1 MOL1         0.1008
@<TRIPOS>BOND
    1     1     2    1
    2     1     3    1
    3     1     4    1
    4     4     5    1
    5     4     6    1
    6     6     7    1
    7     4     8    1
    8     8     9    1
    9     8    10    1
   10    10    11    1
   11     8    12    1
   12    12    13    1
   13    12    14    1
   14    14    15    1
   15     1    16    1
   16    14    16    1
   17    14    17    1
   18    17    18    1
   19    17    19    1
   20    17    20    1
   21    20    21    1
   22    22    23    1
   23    22    24    1
   24    22    25    1
   25    25    26    1
   26    25    27    1
   27    27    28    1
   28    25    29    1
   29    29    30    1
   30    29    31    1
   31    31    32    1
   32     3    33    1
   33    29    33    1
   34    33    34    1
   35    33    35    1
   36    35    36    1
   37    22    37    1
   38    35    37    1
   39    35    38    1
   40    38    39    1
   41    38    40    1
   42    38    41    1
   43    41    42    1
   44    43    44    1
   45    43    45    1
   46    43    46    1
   47    46    47    1
   48    46    48    1
   49    48    49    1
   50    46    50    1
   51    50    51    1
   52    50    52    1
   53    52    53    1
   54    24    54    1
   55    50    54    1
   56    54    55    1
   57    54    56    1
   58    56    57    1
   59    43    58    1
   60    56    58    1
   61    56    59    1
   62    59    60    1
   63    59    61    1
   64    59    62    1
   65    62    63    1
   66    64    65    1
   67    64    66    1
   68    64    67    1
   69    67    68    1
   70    67    69    1
   71    69    70    1
   72    67    71    1
   73    71    72    1
   74    71    73    1
   75    73    74    1
   76    45    75    1
   77    71    75    1
   78    75    76    1
   79    75    77    1
   80    77    78    1
   81    64    79    1
   82    77    79    1
   83    77    80    1
   84    80    81    1
   85    80    82    1
   86    80    83    1
   87    83    84    1
   88    85    86    1
   89    85    87    1
   90    85    88    1
   91    88    89    1
   92    88    90    1
   93    90    91    1
   94    88    92    1
   95    92    93    1
   96    92    94    1
   97    94    95    1
   98    66    96    1
   99    92    96    1
  100    96    97    1
  101    96    98    1
  102    98    99    1
  103    85   100    1
  104    98   100    1
  105    98   101    1
  106   101   102    1
  107   101   103    1
  108   101   104    1
  109   104   105    1
  110   106   107    1
  111    12   108    1
  112   106   108    1
  113   106   109    1
  114   109   110    1
  115   109   111    1
  116   111   112    1
  117   109   113    1
  118   113   114    1
  119   113   115    1
  120   115   116    1
  121    87   117    1
  122   113   117    1
  123   117   118    1
  124   117   119    1
  125   119   120    1
  126   106   121    1
  127   119   121    1
  128   119   122    1
  129   122   123    1
  130   122   124    1
  131   122   125    1
  132   125   126    1
  133   127   128    1
  134   127   129    1
  135   127   130    1
  136   127   131    1
  137   131   132    1
  138   131   133    1
  139   131   134    1
  140   134   135    1
  141   134   136    1
  142   134   137    1
  143   137   138    1
  144   137   139    1
  145   137   140    1
  146   140   141    1
  147   140   142    1
  148   140   143    1
  149   143   144    1
  150   143   145    1
  151   143   146    1
@<TRIPOS>SUBSTRUCTURE
       1 MOL1            1 RESIDUE      1      MOL     
       2 MOL1          146 RESIDUE      1      MOL     
@<SCITEGIC>MOL_PROPERTY
feprocess Rank
SciTegic.value.IntegerValue
5

@<SCITEGIC>MOL_PROPERTY
Conf_Id
SciTegic.value.IntegerValue
136

@<SCITEGIC>MOL_PROPERTY
Probability
SciTegic.value.DoubleValue
8.08

@<SCITEGIC>MOL_PROPERTY
G
SciTegic.value.DoubleValue
558.180

@<SCITEGIC>MOL_PROPERTY
E
SciTegic.value.DoubleValue
365.423

@<SCITEGIC>MOL_PROPERTY
-TS
SciTegic.value.DoubleValue
192.758

@<SCITEGIC>MOL_PROPERTY
U+W
SciTegic.value.DoubleValue
236.652

@<SCITEGIC>MOL_PROPERTY
U
SciTegic.value.DoubleValue
325.279

@<SCITEGIC>MOL_PROPERTY
W
SciTegic.value.DoubleValue
-88.627

@<SCITEGIC>MOL_PROPERTY
W(PB)
SciTegic.value.DoubleValue
-94.641

@<SCITEGIC>MOL_PROPERTY
W(SA)
SciTegic.value.DoubleValue
6.014

@<SCITEGIC>MOL_PROPERTY
Valence
SciTegic.value.DoubleValue
145.597

@<SCITEGIC>MOL_PROPERTY
Coulomb
SciTegic.value.DoubleValue
203.890

@<SCITEGIC>MOL_PROPERTY
VdW
SciTegic.value.DoubleValue
-24.208

@<SCITEGIC>MOL_PROPERTY
VdW6
SciTegic.value.DoubleValue
-177.321

@<SCITEGIC>MOL_PROPERTY
VdW12
SciTegic.value.DoubleValue
153.113

@<SCITEGIC>MOL_PROPERTY
Bond
SciTegic.value.DoubleValue
4.698

@<SCITEGIC>MOL_PROPERTY
Angle
SciTegic.value.DoubleValue
11.556

@<SCITEGIC>MOL_PROPERTY
Pdih
SciTegic.value.DoubleValue
129.342

@<SCITEGIC>MOL_PROPERTY
Idih
SciTegic.value.DoubleValue
0.000

@<SCITEGIC>MOL_PROPERTY
Tether
SciTegic.value.DoubleValue
0.000

@<TRIPOS>MOLECULE
CD_guest-s11_fast_vm2_rndm.mol2 : feprocess host+ligand conformer 6
         146         151           2
SMALL
USER_CHARGES
 
@<TRIPOS>ATOM
       1    C1      16.081894   15.013967   20.892850 C.3        1 MOL1         0.2972
       2    H1      14.995885   14.907219   20.773986 H          1 MOL1         0.0751
       3    O1      16.462496   16.391713   21.109473 O.3        1 MOL1        -0.3740
       4    C2      16.611356   14.141706   22.060103 C.3        1 MOL1         0.1003
       5    H2      16.454279   13.092377   21.777746 H          1 MOL1         0.0783
       6    O2      15.911701   14.396071   23.286098 O.3        1 MOL1        -0.5519
       7    H3      16.047467   15.351457   23.506012 H          1 MOL1         0.3769
       8    C3      18.132951   14.364860   22.230626 C.3        1 MOL1         0.1053
       9    H4      18.296194   15.408672   22.527181 H          1 MOL1         0.0783
      10    O3      18.634597   13.494037   23.248457 O.3        1 MOL1        -0.5519
      11    H5      17.969636   13.535528   23.971898 H          1 MOL1         0.3769
      12    C4      18.884611   14.108995   20.898934 C.3        1 MOL1         0.1018
      13    H6      18.957769   13.022753   20.757362 H          1 MOL1         0.0783
      14    C5      18.188815   14.750947   19.662290 C.3        1 MOL1         0.1043
      15    H7      18.384098   15.828546   19.679697 H          1 MOL1         0.0783
      16    O4      16.754037   14.545137   19.705066 O.3        1 MOL1        -0.3740
      17    C6      18.723611   14.212255   18.313845 C.3        1 MOL1         0.0138
      18    H8      19.751512   14.574253   18.176918 H          1 MOL1         0.0794
      19    H9      18.117404   14.635523   17.501808 H          1 MOL1         0.0794
      20    O5      18.701995   12.780217   18.257383 O.3        1 MOL1        -0.5486
      21    H10     19.009342   12.512977   17.363688 H          1 MOL1         0.3769
      22    C7      15.109033   20.172768   22.050854 C.3        1 MOL1         0.2972
      23    H11     14.542099   21.065996   22.342812 H          1 MOL1         0.0751
      24    O6      16.390078   20.514980   21.487887 O.3        1 MOL1        -0.3740
      25    C8      15.348924   19.268768   23.282765 C.3        1 MOL1         0.1003
      26    H12     14.364173   18.968434   23.664243 H          1 MOL1         0.0783
      27    O7      16.069563   19.971770   24.312082 O.3        1 MOL1        -0.5519
      28    H13     15.981560   20.936402   24.111994 H          1 MOL1         0.3769
      29    C9      16.125934   17.998430   22.871482 C.3        1 MOL1         0.1053
      30    H14     17.121264   18.316112   22.548774 H          1 MOL1         0.0783
      31    O8      16.238242   17.137194   24.008691 O.3        1 MOL1        -0.5519
      32    H15     16.073572   17.718832   24.783654 H          1 MOL1         0.3769
      33    C10     15.463113   17.265418   21.676498 C.3        1 MOL1         0.1018
      34    H16     14.587392   16.712659   22.041850 H          1 MOL1         0.0783
      35    C11     15.046707   18.241110   20.537961 C.3        1 MOL1         0.1043
      36    H17     15.960191   18.564390   20.023170 H          1 MOL1         0.0783
      37    O9      14.373577   19.409546   21.071781 O.3        1 MOL1        -0.3740
      38    C12     14.131417   17.587759   19.475136 C.3        1 MOL1         0.0138
      39    H18     14.726826   16.866009   18.899513 H          1 MOL1         0.0794
      40    H19     13.794894   18.364856   18.775769 H          1 MOL1         0.0794
      41    O10     13.005645   16.926152   20.065647 O.3        1 MOL1        -0.5486
      42    H20     12.434526   16.601044   19.335674 H          1 MOL1         0.3769
      43    C13     18.552559   23.986327   20.634720 C.3        1 MOL1         0.2972
      44    H21     18.856341   24.977576   20.274036 H          1 MOL1         0.0751
      45    O11     19.680579   23.211057   21.088215 O.3        1 MOL1        -0.3740
      46    C14     17.561185   24.109459   21.822669 C.3        1 MOL1         0.1003
      47    H22     16.681212   24.656674   21.460255 H          1 MOL1         0.0783
      48    O12     18.147460   24.834987   22.915369 O.3        1 MOL1        -0.5519
      49    H23     19.064643   24.485254   23.050279 H          1 MOL1         0.3769
      50    C15     17.092064   22.709029   22.292288 C.3        1 MOL1         0.1053
      51    H24     17.961397   22.183629   22.706760 H          1 MOL1         0.0783
      52    O13     16.092320   22.855881   23.307109 O.3        1 MOL1        -0.5519
      53    H25     16.420734   23.584788   23.880900 H          1 MOL1         0.3769
      54    C16     16.547372   21.888425   21.091886 C.3        1 MOL1         0.1018
      55    H26     15.594188   22.323864   20.764325 H          1 MOL1         0.0783
      56    C17     17.538420   21.887370   19.899644 C.3        1 MOL1         0.1043
      57    H27     18.439055   21.341911   20.203545 H          1 MOL1         0.0783
      58    O14     17.896083   23.251667   19.576989 O.3        1 MOL1        -0.3740
      59    C18     16.995340   21.185940   18.628232 C.3        1 MOL1         0.0138
      60    H28     17.165095   20.106255   18.730299 H          1 MOL1         0.0794
      61    H29     17.582432   21.522054   17.763246 H          1 MOL1         0.0794
      62    O15     15.600913   21.429681   18.405328 O.3        1 MOL1        -0.5486
      63    H30     15.106357   20.975298   19.122971 H          1 MOL1         0.3769
      64    C19     23.760767   23.000438   21.242259 C.3        1 MOL1         0.2972
      65    H31     24.852204   23.115608   21.224267 H          1 MOL1         0.0751
      66    O16     23.376392   21.605529   21.270963 O.3        1 MOL1        -0.3740
      67    C20     23.132870   23.758909   22.441447 C.3        1 MOL1         0.1003
      68    H32     23.299034   24.830188   22.267482 H          1 MOL1         0.0783
      69    O17     23.737521   23.401205   23.691947 O.3        1 MOL1        -0.5519
      70    H33     23.510329   22.452259   23.857324 H          1 MOL1         0.3769
      71    C21     21.605907   23.514834   22.469906 C.3        1 MOL1         0.1053
      72    H34     21.433511   22.447491   22.656505 H          1 MOL1         0.0783
      73    O18     21.009885   24.286163   23.517626 O.3        1 MOL1        -0.5519
      74    H35     21.603072   24.169466   24.292943 H          1 MOL1         0.3769
      75    C22     20.954097   23.883499   21.113114 C.3        1 MOL1         0.1018
      76    H36     20.843855   24.975373   21.077305 H          1 MOL1         0.0783
      77    C23     21.760579   23.388399   19.874377 C.3        1 MOL1         0.1043
      78    H37     21.577409   22.314545   19.754210 H          1 MOL1         0.0783
      79    O19     23.184888   23.592943   20.059064 O.3        1 MOL1        -0.3740
      80    C24     21.333434   24.068842   18.551753 C.3        1 MOL1         0.0138
      81    H38     20.333775   23.704603   18.278961 H          1 MOL1         0.0794
      82    H39     22.022951   23.753539   17.757219 H          1 MOL1         0.0794
      83    O20     21.317149   25.497931   18.659017 O.3        1 MOL1        -0.5486
      84    H40     21.103541   25.860710   17.771576 H          1 MOL1         0.3769
      85    C25     24.588465   17.776482   22.325130 C.3        1 MOL1         0.2972
      86    H41     25.128723   16.900110   22.703883 H          1 MOL1         0.0751
      87    O21     23.477902   17.395726   21.486330 O.3        1 MOL1        -0.3740
      88    C26     24.051186   18.629777   23.501660 C.3        1 MOL1         0.1003
      89    H42     24.917511   18.937755   24.101621 H          1 MOL1         0.0783
      90    O22     23.139689   17.886384   24.329060 O.3        1 MOL1        -0.5519
      91    H43     23.366786   16.931658   24.221045 H          1 MOL1         0.3769
      92    C27     23.347563   19.899120   22.975636 C.3        1 MOL1         0.1053
      93    H44     22.457686   19.579693   22.424891 H          1 MOL1         0.0783
      94    O23     22.963371   20.695721   24.098388 O.3        1 MOL1        -0.5519
      95    H45     22.652382   20.039348   24.761975 H          1 MOL1         0.3769
      96    C28     24.238889   20.697484   21.991046 C.3        1 MOL1         0.1018
      97    H46     25.015097   21.226067   22.560108 H          1 MOL1         0.0783
      98    C29     24.895329   19.773714   20.925937 C.3        1 MOL1         0.1043
      99    H47     24.112539   19.446148   20.229744 H          1 MOL1         0.0783
     100    O24     25.482754   18.605845   21.552658 O.3        1 MOL1        -0.3740
     101    C30     25.986341   20.483935   20.089253 C.3        1 MOL1         0.0138
     102    H48     25.497673   21.210587   19.426049 H          1 MOL1         0.0794
     103    H49     26.479205   19.738702   19.450607 H          1 MOL1         0.0794
     104    O25     26.950870   21.151578   20.912793 O.3        1 MOL1        -0.5486
     105    H50     27.647888   21.512460   20.322297 H          1 MOL1         0.3769
     106    C31     21.317903   13.901361   20.700551 C.3        1 MOL1         0.2972
     107    H51     21.015216   12.895375   20.382982 H          1 MOL1         0.0751
     108    O26     20.181131   14.727978   21.028589 O.3        1 MOL1        -0.3740
     109    C32     22.225973   13.826634   21.953337 C.3        1 MOL1         0.1003
     110    H52     23.117543   13.249439   21.675326 H          1 MOL1         0.0783
     111    O27     21.562578   13.162816   23.040886 O.3        1 MOL1        -0.5519
     112    H53     20.618975   13.464995   23.046745 H          1 MOL1         0.3769
     113    C33     22.692263   15.240450   22.381380 C.3        1 MOL1         0.1053
     114    H54     21.810237   15.808246   22.705481 H          1 MOL1         0.0783
     115    O28     23.606506   15.101271   23.474468 O.3        1 MOL1        -0.5519
     116    H55     23.225853   14.380165   24.026895 H          1 MOL1         0.3769
     117    C34     23.348208   15.989998   21.185087 C.3        1 MOL1         0.1018
     118    H56     24.326681   15.539882   20.974153 H          1 MOL1         0.0783
     119    C35     22.466694   15.913807   19.908841 C.3        1 MOL1         0.1043
     120    H57     21.567269   16.513511   20.082816 H          1 MOL1         0.0783
     121    O29     22.073606   14.545100   19.652250 O.3        1 MOL1        -0.3740
     122    C36     23.151956   16.483155   18.641698 C.3        1 MOL1         0.0138
     123    H58     23.168240   17.578650   18.715351 H          1 MOL1         0.0794
     124    H59     22.538071   16.226995   17.768058 H          1 MOL1         0.0794
     125    O30     24.486741   15.993347   18.466190 O.3        1 MOL1        -0.5486
     126    H60     25.048290   16.419039   19.149308 H          1 MOL1         0.3769
     127    N1      18.583727   18.706083   25.216710 N.4        1 MOL1        -0.5919
     128    H1      18.673410   18.582723   26.229872 H          1 MOL1         0.3682
     129    H2      17.723077   19.252690   25.046683 H          1 MOL1         0.3682
     130    H3      18.425326   17.780679   24.802145 H          1 MOL1         0.3682
     131    C1      19.789948   19.399056   24.617750 C.3        1 MOL1         0.0252
     132    H4      20.680752   18.799736   24.828011 H          1 MOL1         0.0971
     133    H5      19.896792   20.364097   25.120581 H          1 MOL1         0.0971
     134    C2      19.655510   19.627761   23.103307 C.3        1 MOL1        -0.1369
     135    H6      18.670123   20.055778   22.887480 H          1 MOL1         0.0997
     136    H7      20.389257   20.382640   22.800952 H          1 MOL1         0.0997
     137    C3      19.863934   18.328941   22.286620 C.3        1 MOL1        -0.1329
     138    H8      19.203506   17.540695   22.667353 H          1 MOL1         0.0997
     139    H9      20.885754   17.955885   22.431710 H          1 MOL1         0.0997
     140    C4      19.585500   18.521683   20.778362 C.3        1 MOL1        -0.1305
     141    H10     19.604518   17.542491   20.287628 H          1 MOL1         0.0997
     142    H11     18.568856   18.912191   20.636394 H          1 MOL1         0.0997
     143    C5      20.609289   19.448190   20.085702 C.3        1 MOL1        -0.2320
     144    H12     21.629555   19.061051   20.195784 H          1 MOL1         0.1008
     145    H13     20.394058   19.531677   19.012921 H          1 MOL1         0.1008
     146    H14     20.585240   20.457423   20.511347 H          1 MOL1         0.1008
@<TRIPOS>BOND
    1     1     2    1
    2     1     3    1
    3     1     4    1
    4     4     5    1
    5     4     6    1
    6     6     7    1
    7     4     8    1
    8     8     9    1
    9     8    10    1
   10    10    11    1
   11     8    12    1
   12    12    13    1
   13    12    14    1
   14    14    15    1
   15     1    16    1
   16    14    16    1
   17    14    17    1
   18    17    18    1
   19    17    19    1
   20    17    20    1
   21    20    21    1
   22    22    23    1
   23    22    24    1
   24    22    25    1
   25    25    26    1
   26    25    27    1
   27    27    28    1
   28    25    29    1
   29    29    30    1
   30    29    31    1
   31    31    32    1
   32     3    33    1
   33    29    33    1
   34    33    34    1
   35    33    35    1
   36    35    36    1
   37    22    37    1
   38    35    37    1
   39    35    38    1
   40    38    39    1
   41    38    40    1
   42    38    41    1
   43    41    42    1
   44    43    44    1
   45    43    45    1
   46    43    46    1
   47    46    47    1
   48    46    48    1
   49    48    49    1
   50    46    50    1
   51    50    51    1
   52    50    52    1
   53    52    53    1
   54    24    54    1
   55    50    54    1
   56    54    55    1
   57    54    56    1
   58    56    57    1
   59    43    58    1
   60    56    58    1
   61    56    59    1
   62    59    60    1
   63    59    61    1
   64    59    62    1
   65    62    63    1
   66    64    65    1
   67    64    66    1
   68    64    67    1
   69    67    68    1
   70    67    69    1
   71    69    70    1
   72    67    71    1
   73    71    72    1
   74    71    73    1
   75    73    74    1
   76    45    75    1
   77    71    75    1
   78    75    76    1
   79    75    77    1
   80    77    78    1
   81    64    79    1
   82    77    79    1
   83    77    80    1
   84    80    81    1
   85    80    82    1
   86    80    83    1
   87    83    84    1
   88    85    86    1
   89    85    87    1
   90    85    88    1
   91    88    89    1
   92    88    90    1
   93    90    91    1
   94    88    92    1
   95    92    93    1
   96    92    94    1
   97    94    95    1
   98    66    96    1
   99    92    96    1
  100    96    97    1
  101    96    98    1
  102    98    99    1
  103    85   100    1
  104    98   100    1
  105    98   101    1
  106   101   102    1
  107   101   103    1
  108   101   104    1
  109   104   105    1
  110   106   107    1
  111    12   108    1
  112   106   108    1
  113   106   109    1
  114   109   110    1
  115   109   111    1
  116   111   112    1
  117   109   113    1
  118   113   114    1
  119   113   115    1
  120   115   116    1
  121    87   117    1
  122   113   117    1
  123   117   118    1
  124   117   119    1
  125   119   120    1
  126   106   121    1
  127   119   121    1
  128   119   122    1
  129   122   123    1
  130   122   124    1
  131   122   125    1
  132   125   126    1
  133   127   128    1
  134   127   129    1
  135   127   130    1
  136   127   131    1
  137   131   132    1
  138   131   133    1
  139   131   134    1
  140   134   135    1
  141   134   136    1
  142   134   137    1
  143   137   138    1
  144   137   139    1
  145   137   140    1
  146   140   141    1
  147   140   142    1
  148   140   143    1
  149   143   144    1
  150   143   145    1
  151   143   146    1
@<TRIPOS>SUBSTRUCTURE
       1 MOL1            1 RESIDUE      1      MOL     
       2 MOL1          146 RESIDUE      1      MOL     
@<SCITEGIC>MOL_PROPERTY
feprocess Rank
SciTegic.value.IntegerValue
6

@<SCITEGIC>MOL_PROPERTY
Conf_Id
SciTegic.value.IntegerValue
517

@<SCITEGIC>MOL_PROPERTY
Probability
SciTegic.value.DoubleValue
2.52

@<SCITEGIC>MOL_PROPERTY
G
SciTegic.value.DoubleValue
558.875

@<SCITEGIC>MOL_PROPERTY
E
SciTegic.value.DoubleValue
364.453

@<SCITEGIC>MOL_PROPERTY
-TS
SciTegic.value.DoubleValue
194.422

@<SCITEGIC>MOL_PROPERTY
U+W
SciTegic.value.DoubleValue
235.682

@<SCITEGIC>MOL_PROPERTY
U
SciTegic.value.DoubleValue
323.443

@<SCITEGIC>MOL_PROPERTY
W
SciTegic.value.DoubleValue
-87.766

@<SCITEGIC>MOL_PROPERTY
W(PB)
SciTegic.value.DoubleValue
-93.846

@<SCITEGIC>MOL_PROPERTY
W(SA)
SciTegic.value.DoubleValue
6.080

@<SCITEGIC>MOL_PROPERTY
Valence
SciTegic.value.DoubleValue
146.829

@<SCITEGIC>MOL_PROPERTY
Coulomb
SciTegic.value.DoubleValue
199.613

@<SCITEGIC>MOL_PROPERTY
VdW
SciTegic.value.DoubleValue
-22.999

@<SCITEGIC>MOL_PROPERTY
VdW6
SciTegic.value.DoubleValue
-178.511

@<SCITEGIC>MOL_PROPERTY
VdW12
SciTegic.value.DoubleValue
155.512

@<SCITEGIC>MOL_PROPERTY
Bond
SciTegic.value.DoubleValue
4.772

@<SCITEGIC>MOL_PROPERTY
Angle
SciTegic.value.DoubleValue
12.084

@<SCITEGIC>MOL_PROPERTY
Pdih
SciTegic.value.DoubleValue
129.973

@<SCITEGIC>MOL_PROPERTY
Idih
SciTegic.value.DoubleValue
0.000

@<SCITEGIC>MOL_PROPERTY
Tether
SciTegic.value.DoubleValue
0.000

@<TRIPOS>MOLECULE
CD_guest-s11_fast_vm2_rndm.mol2 : feprocess host+ligand conformer 7
         146         151           2
SMALL
USER_CHARGES
 
@<TRIPOS>ATOM
       1    C1      16.421454   15.261150   21.800151 C.3        1 MOL1         0.2972
       2    H1      15.371181   15.185700   22.109151 H          1 MOL1         0.0751
       3    O1      16.708894   16.549160   21.215518 O.3        1 MOL1        -0.3740
       4    C2      17.353902   15.039779   23.017154 C.3        1 MOL1         0.1003
       5    H2      17.127822   14.042149   23.416114 H          1 MOL1         0.0783
       6    O2      17.136860   16.024276   24.043796 O.3        1 MOL1        -0.5519
       7    H3      16.213618   16.359390   23.926254 H          1 MOL1         0.3769
       8    C3      18.838760   15.067813   22.593914 C.3        1 MOL1         0.1053
       9    H4      19.078832   16.095217   22.300987 H          1 MOL1         0.0783
      10    O3      19.632581   14.684599   23.720705 O.3        1 MOL1        -0.5519
      11    H5      19.111318   14.957726   24.506515 H          1 MOL1         0.3769
      12    C4      19.144268   14.164200   21.372559 C.3        1 MOL1         0.1018
      13    H6      19.241035   13.123755   21.709477 H          1 MOL1         0.0783
      14    C5      18.058985   14.270532   20.262647 C.3        1 MOL1         0.1043
      15    H7      18.192657   15.228709   19.745664 H          1 MOL1         0.0783
      16    O4      16.727809   14.233605   20.834171 O.3        1 MOL1        -0.3740
      17    C6      18.168047   13.159257   19.191579 C.3        1 MOL1         0.0138
      18    H8      19.069280   13.342945   18.591102 H          1 MOL1         0.0794
      19    H9      17.304549   13.237219   18.517351 H          1 MOL1         0.0794
      20    O5      18.230833   11.850523   19.772320 O.3        1 MOL1        -0.5486
      21    H10     18.223223   11.197904   19.038254 H          1 MOL1         0.3769
      22    C7      14.868877   20.277773   20.837233 C.3        1 MOL1         0.2972
      23    H11     14.181263   21.101864   20.606981 H          1 MOL1         0.0751
      24    O6      16.172557   20.763045   21.220510 O.3        1 MOL1        -0.3740
      25    C8      14.310388   19.399156   21.986417 C.3        1 MOL1         0.1003
      26    H12     13.346967   18.996584   21.647238 H          1 MOL1         0.0783
      27    O7      14.099133   20.171264   23.179077 O.3        1 MOL1        -0.5519
      28    H13     14.923323   20.695468   23.346547 H          1 MOL1         0.3769
      29    C9      15.247765   18.200251   22.276614 C.3        1 MOL1         0.1053
      30    H14     16.187518   18.599222   22.678664 H          1 MOL1         0.0783
      31    O8      14.627669   17.356134   23.253409 O.3        1 MOL1        -0.5519
      32    H15     14.215890   17.977313   23.896699 H          1 MOL1         0.3769
      33    C10     15.570058   17.406916   20.977543 C.3        1 MOL1         0.1018
      34    H16     14.689927   16.823657   20.675927 H          1 MOL1         0.0783
      35    C11     15.971150   18.347654   19.809291 C.3        1 MOL1         0.1043
      36    H17     16.958706   18.766011   20.034310 H          1 MOL1         0.0783
      37    O9      15.022469   19.433021   19.679865 O.3        1 MOL1        -0.3740
      38    C12     16.065837   17.619060   18.447081 C.3        1 MOL1         0.0138
      39    H18     16.905344   16.912587   18.487104 H          1 MOL1         0.0794
      40    H19     16.295814   18.358987   17.668927 H          1 MOL1         0.0794
      41    O10     14.858512   16.917287   18.124918 O.3        1 MOL1        -0.5486
      42    H20     14.976277   16.509823   17.239579 H          1 MOL1         0.3769
      43    C13     18.411884   24.199227   21.654562 C.3        1 MOL1         0.2972
      44    H21     18.814729   25.213659   21.769158 H          1 MOL1         0.0751
      45    O11     19.453105   23.226529   21.425750 O.3        1 MOL1        -0.3740
      46    C14     17.619871   23.790037   22.921236 C.3        1 MOL1         0.1003
      47    H22     16.758215   24.464952   23.007173 H          1 MOL1         0.0783
      48    O12     18.424616   23.900813   24.105473 O.3        1 MOL1        -0.5519
      49    H23     19.372267   23.908972   23.820244 H          1 MOL1         0.3769
      50    C15     17.086633   22.349757   22.767236 C.3        1 MOL1         0.1053
      51    H24     17.954472   21.685671   22.718222 H          1 MOL1         0.0783
      52    O13     16.281807   22.010271   23.899953 O.3        1 MOL1        -0.5519
      53    H25     16.784516   22.351277   24.673916 H          1 MOL1         0.3769
      54    C16     16.272218   22.182511   21.461542 C.3        1 MOL1         0.1018
      55    H26     15.287681   22.644226   21.614630 H          1 MOL1         0.0783
      56    C17     16.971928   22.818568   20.223032 C.3        1 MOL1         0.1043
      57    H27     17.804906   22.166066   19.933372 H          1 MOL1         0.0783
      58    O14     17.497242   24.135502   20.540085 O.3        1 MOL1        -0.3740
      59    C18     16.044821   22.945230   18.990627 C.3        1 MOL1         0.0138
      60    H28     15.852649   21.939232   18.593564 H          1 MOL1         0.0794
      61    H29     16.574013   23.508311   18.210197 H          1 MOL1         0.0794
      62    O15     14.803637   23.585384   19.312314 O.3        1 MOL1        -0.5486
      63    H30     14.299233   23.694148   18.476629 H          1 MOL1         0.3769
      64    C19     23.540799   22.733175   20.944393 C.3        1 MOL1         0.2972
      65    H31     24.610078   22.843920   20.723453 H          1 MOL1         0.0751
      66    O16     23.192684   21.348400   21.164993 O.3        1 MOL1        -0.3740
      67    C20     23.132578   23.592839   22.173844 C.3        1 MOL1         0.1003
      68    H32     23.336178   24.639339   21.911779 H          1 MOL1         0.0783
      69    O17     23.886274   23.257919   23.348628 O.3        1 MOL1        -0.5519
      70    H33     23.644696   22.327950   23.588917 H          1 MOL1         0.3769
      71    C21     21.617026   23.463063   22.457395 C.3        1 MOL1         0.1053
      72    H34     21.420355   22.434648   22.787410 H          1 MOL1         0.0783
      73    O18     21.250430   24.379811   23.491960 O.3        1 MOL1        -0.5519
      74    H35     21.969127   24.313655   24.160593 H          1 MOL1         0.3769
      75    C22     20.776625   23.739164   21.184526 C.3        1 MOL1         0.1018
      76    H36     20.773158   24.819335   20.989962 H          1 MOL1         0.0783
      77    C23     21.325132   22.997293   19.935002 C.3        1 MOL1         0.1043
      78    H37     21.128204   21.926722   20.058601 H          1 MOL1         0.0783
      79    O19     22.755689   23.203470   19.825881 O.3        1 MOL1        -0.3740
      80    C24     20.649097   23.419142   18.606387 C.3        1 MOL1         0.0138
      81    H38     19.661419   22.942707   18.550830 H          1 MOL1         0.0794
      82    H39     21.244746   23.024278   17.772646 H          1 MOL1         0.0794
      83    O20     20.503791   24.838404   18.478441 O.3        1 MOL1        -0.5486
      84    H40     19.718581   25.100427   19.006564 H          1 MOL1         0.3769
      85    C25     24.710018   17.625804   22.162887 C.3        1 MOL1         0.2972
      86    H41     25.313439   16.779172   22.514483 H          1 MOL1         0.0751
      87    O21     23.574113   17.182825   21.393541 O.3        1 MOL1        -0.3740
      88    C26     24.211894   18.465965   23.367947 C.3        1 MOL1         0.1003
      89    H42     25.101082   18.809914   23.912222 H          1 MOL1         0.0783
      90    O22     23.383979   17.688719   24.250149 O.3        1 MOL1        -0.5519
      91    H43     23.582510   16.737380   24.073664 H          1 MOL1         0.3769
      92    C27     23.424843   19.706467   22.891478 C.3        1 MOL1         0.1053
      93    H44     22.493342   19.346480   22.446368 H          1 MOL1         0.0783
      94    O23     23.127489   20.534034   24.020049 O.3        1 MOL1        -0.5519
      95    H45     22.862676   19.902311   24.726232 H          1 MOL1         0.3769
      96    C28     24.180696   20.513685   21.807515 C.3        1 MOL1         0.1018
      97    H46     24.971106   21.101940   22.291631 H          1 MOL1         0.0783
      98    C29     24.800055   19.600899   20.711424 C.3        1 MOL1         0.1043
      99    H47     23.982843   19.212729   20.089827 H          1 MOL1         0.0783
     100    O24     25.503189   18.487966   21.320209 O.3        1 MOL1        -0.3740
     101    C30     25.778439   20.341135   19.768164 C.3        1 MOL1         0.0138
     102    H48     25.197370   21.009686   19.118681 H          1 MOL1         0.0794
     103    H49     26.266920   19.601149   19.120071 H          1 MOL1         0.0794
     104    O25     26.759557   21.096854   20.489267 O.3        1 MOL1        -0.5486
     105    H50     27.392533   21.465236   19.834772 H          1 MOL1         0.3769
     106    C31     21.448557   13.738526   20.562269 C.3        1 MOL1         0.2972
     107    H51     21.071270   12.755882   20.251167 H          1 MOL1         0.0751
     108    O26     20.367237   14.669717   20.795639 O.3        1 MOL1        -0.3740
     109    C32     22.356480   13.625987   21.817172 C.3        1 MOL1         0.1003
     110    H52     23.241080   13.048982   21.517080 H          1 MOL1         0.0783
     111    O27     21.715297   12.936812   22.898926 O.3        1 MOL1        -0.5519
     112    H53     20.967023   13.510929   23.198655 H          1 MOL1         0.3769
     113    C33     22.839953   15.029500   22.258915 C.3        1 MOL1         0.1053
     114    H54     21.963608   15.612261   22.573395 H          1 MOL1         0.0783
     115    O28     23.746967   14.888626   23.358152 O.3        1 MOL1        -0.5519
     116    H55     23.360177   14.176665   23.916975 H          1 MOL1         0.3769
     117    C34     23.522486   15.776584   21.079086 C.3        1 MOL1         0.1018
     118    H56     24.527319   15.362472   20.927322 H          1 MOL1         0.0783
     119    C35     22.720702   15.664271   19.751083 C.3        1 MOL1         0.1043
     120    H57     21.837673   16.305380   19.838694 H          1 MOL1         0.0783
     121    O29     22.281653   14.300611   19.525431 O.3        1 MOL1        -0.3740
     122    C36     23.502954   16.154596   18.507826 C.3        1 MOL1         0.0138
     123    H58     23.580049   17.249197   18.552595 H          1 MOL1         0.0794
     124    H59     22.919439   15.907901   17.610932 H          1 MOL1         0.0794
     125    O30     24.812743   15.581452   18.414139 O.3        1 MOL1        -0.5486
     126    H60     25.379311   16.026625   19.080349 H          1 MOL1         0.3769
     127    N1      19.470893   17.699350   24.744207 N.4        1 MOL1        -0.5919
     128    H1      19.074085   18.413856   25.361175 H          1 MOL1         0.3682
     129    H2      18.696260   17.068211   24.480518 H          1 MOL1         0.3682
     130    H3      20.140682   17.154654   25.297501 H          1 MOL1         0.3682
     131    C1      20.130431   18.308765   23.525972 C.3        1 MOL1         0.0252
     132    H4      20.652798   17.513586   22.986878 H          1 MOL1         0.0971
     133    H5      20.873101   19.030530   23.876008 H          1 MOL1         0.0971
     134    C2      19.122730   19.002296   22.592547 C.3        1 MOL1        -0.1369
     135    H6      18.432534   18.264636   22.171747 H          1 MOL1         0.0997
     136    H7      18.509821   19.682835   23.193898 H          1 MOL1         0.0997
     137    C3      19.805071   19.798663   21.455509 C.3        1 MOL1        -0.1329
     138    H8      20.495542   20.523174   21.905413 H          1 MOL1         0.0997
     139    H9      19.050027   20.391896   20.923719 H          1 MOL1         0.0997
     140    C4      20.578784   18.926206   20.436027 C.3        1 MOL1        -0.1305
     141    H10     21.226873   19.573577   19.829665 H          1 MOL1         0.0997
     142    H11     21.245943   18.234729   20.962104 H          1 MOL1         0.0997
     143    C5      19.653115   18.128250   19.493874 C.3        1 MOL1        -0.2320
     144    H12     18.986809   18.800052   18.939013 H          1 MOL1         0.1008
     145    H13     20.239022   17.564188   18.757678 H          1 MOL1         0.1008
     146    H14     19.042669   17.409990   20.053312 H          1 MOL1         0.1008
@<TRIPOS>BOND
    1     1     2    1
    2     1     3    1
    3     1     4    1
    4     4     5    1
    5     4     6    1
    6     6     7    1
    7     4     8    1
    8     8     9    1
    9     8    10    1
   10    10    11    1
   11     8    12    1
   12    12    13    1
   13    12    14    1
   14    14    15    1
   15     1    16    1
   16    14    16    1
   17    14    17    1
   18    17    18    1
   19    17    19    1
   20    17    20    1
   21    20    21    1
   22    22    23    1
   23    22    24    1
   24    22    25    1
   25    25    26    1
   26    25    27    1
   27    27    28    1
   28    25    29    1
   29    29    30    1
   30    29    31    1
   31    31    32    1
   32     3    33    1
   33    29    33    1
   34    33    34    1
   35    33    35    1
   36    35    36    1
   37    22    37    1
   38    35    37    1
   39    35    38    1
   40    38    39    1
   41    38    40    1
   42    38    41    1
   43    41    42    1
   44    43    44    1
   45    43    45    1
   46    43    46    1
   47    46    47    1
   48    46    48    1
   49    48    49    1
   50    46    50    1
   51    50    51    1
   52    50    52    1
   53    52    53    1
   54    24    54    1
   55    50    54    1
   56    54    55    1
   57    54    56    1
   58    56    57    1
   59    43    58    1
   60    56    58    1
   61    56    59    1
   62    59    60    1
   63    59    61    1
   64    59    62    1
   65    62    63    1
   66    64    65    1
   67    64    66    1
   68    64    67    1
   69    67    68    1
   70    67    69    1
   71    69    70    1
   72    67    71    1
   73    71    72    1
   74    71    73    1
   75    73    74    1
   76    45    75    1
   77    71    75    1
   78    75    76    1
   79    75    77    1
   80    77    78    1
   81    64    79    1
   82    77    79    1
   83    77    80    1
   84    80    81    1
   85    80    82    1
   86    80    83    1
   87    83    84    1
   88    85    86    1
   89    85    87    1
   90    85    88    1
   91    88    89    1
   92    88    90    1
   93    90    91    1
   94    88    92    1
   95    92    93    1
   96    92    94    1
   97    94    95    1
   98    66    96    1
   99    92    96    1
  100    96    97    1
  101    96    98    1
  102    98    99    1
  103    85   100    1
  104    98   100    1
  105    98   101    1
  106   101   102    1
  107   101   103    1
  108   101   104    1
  109   104   105    1
  110   106   107    1
  111    12   108    1
  112   106   108    1
  113   106   109    1
  114   109   110    1
  115   109   111    1
  116   111   112    1
  117   109   113    1
  118   113   114    1
  119   113   115    1
  120   115   116    1
  121    87   117    1
  122   113   117    1
  123   117   118    1
  124   117   119    1
  125   119   120    1
  126   106   121    1
  127   119   121    1
  128   119   122    1
  129   122   123    1
  130   122   124    1
  131   122   125    1
  132   125   126    1
  133   127   128    1
  134   127   129    1
  135   127   130    1
  136   127   131    1
  137   131   132    1
  138   131   133    1
  139   131   134    1
  140   134   135    1
  141   134   136    1
  142   134   137    1
  143   137   138    1
  144   137   139    1
  145   137   140    1
  146   140   141    1
  147   140   142    1
  148   140   143    1
  149   143   144    1
  150   143   145    1
  151   143   146    1
@<TRIPOS>SUBSTRUCTURE
       1 MOL1            1 RESIDUE      1      MOL     
       2 MOL1          146 RESIDUE      1      MOL     
@<SCITEGIC>MOL_PROPERTY
feprocess Rank
SciTegic.value.IntegerValue
7

@<SCITEGIC>MOL_PROPERTY
Conf_Id
SciTegic.value.IntegerValue
903

@<SCITEGIC>MOL_PROPERTY
Probability
SciTegic.value.DoubleValue
1.16

@<SCITEGIC>MOL_PROPERTY
G
SciTegic.value.DoubleValue
559.337

@<SCITEGIC>MOL_PROPERTY
E
SciTegic.value.DoubleValue
364.932

@<SCITEGIC>MOL_PROPERTY
-TS
SciTegic.value.DoubleValue
194.405

@<SCITEGIC>MOL_PROPERTY
U+W
SciTegic.value.DoubleValue
236.161

@<SCITEGIC>MOL_PROPERTY
U
SciTegic.value.DoubleValue
324.746

@<SCITEGIC>MOL_PROPERTY
W
SciTegic.value.DoubleValue
-88.585

@<SCITEGIC>MOL_PROPERTY
W(PB)
SciTegic.value.DoubleValue
-94.668

@<SCITEGIC>MOL_PROPERTY
W(SA)
SciTegic.value.DoubleValue
6.084

@<SCITEGIC>MOL_PROPERTY
Valence
SciTegic.value.DoubleValue
146.778

@<SCITEGIC>MOL_PROPERTY
Coulomb
SciTegic.value.DoubleValue
201.970

@<SCITEGIC>MOL_PROPERTY
VdW
SciTegic.value.DoubleValue
-24.003

@<SCITEGIC>MOL_PROPERTY
VdW6
SciTegic.value.DoubleValue
-180.085

@<SCITEGIC>MOL_PROPERTY
VdW12
SciTegic.value.DoubleValue
156.082

@<SCITEGIC>MOL_PROPERTY
Bond
SciTegic.value.DoubleValue
4.825

@<SCITEGIC>MOL_PROPERTY
Angle
SciTegic.value.DoubleValue
12.411

@<SCITEGIC>MOL_PROPERTY
Pdih
SciTegic.value.DoubleValue
129.542

@<SCITEGIC>MOL_PROPERTY
Idih
SciTegic.value.DoubleValue
0.000

@<SCITEGIC>MOL_PROPERTY
Tether
SciTegic.value.DoubleValue
0.000

@<TRIPOS>MOLECULE
CD_guest-s11_fast_vm2_rndm.mol2 : feprocess host+ligand conformer 8
         146         151           2
SMALL
USER_CHARGES
 
@<TRIPOS>ATOM
       1    C1      16.092140   14.967051   20.975942 C.3        1 MOL1         0.2972
       2    H1      15.005502   14.842519   20.883172 H          1 MOL1         0.0751
       3    O1      16.461027   16.362794   21.061736 O.3        1 MOL1        -0.3740
       4    C2      16.647597   14.191386   22.200271 C.3        1 MOL1         0.1003
       5    H2      16.493522   13.122679   22.001284 H          1 MOL1         0.0783
       6    O2      15.965572   14.532304   23.415058 O.3        1 MOL1        -0.5519
       7    H3      16.141932   15.491284   23.585641 H          1 MOL1         0.3769
       8    C3      18.170375   14.433991   22.329162 C.3        1 MOL1         0.1053
       9    H4      18.328424   15.496472   22.550733 H          1 MOL1         0.0783
      10    O3      18.702841   13.639633   23.393943 O.3        1 MOL1        -0.5519
      11    H5      18.063938   13.739324   24.134479 H          1 MOL1         0.3769
      12    C4      18.902187   14.089191   21.007139 C.3        1 MOL1         0.1018
      13    H6      18.985837   12.995944   20.948212 H          1 MOL1         0.0783
      14    C5      18.181067   14.631099   19.737282 C.3        1 MOL1         0.1043
      15    H7      18.363707   15.709608   19.677010 H          1 MOL1         0.0783
      16    O4      16.750341   14.409702   19.819492 O.3        1 MOL1        -0.3740
      17    C6      18.697086   14.006176   18.418768 C.3        1 MOL1         0.0138
      18    H8      19.706189   14.391181   18.220378 H          1 MOL1         0.0794
      19    H9      18.052974   14.343825   17.595830 H          1 MOL1         0.0794
      20    O5      18.725317   12.574274   18.473531 O.3        1 MOL1        -0.5486
      21    H10     19.003305   12.248054   17.589831 H          1 MOL1         0.3769
      22    C7      15.090876   20.179248   21.931449 C.3        1 MOL1         0.2972
      23    H11     14.504997   21.054634   22.238419 H          1 MOL1         0.0751
      24    O6      16.282701   20.562982   21.213508 O.3        1 MOL1        -0.3740
      25    C8      15.497504   19.340588   23.170236 C.3        1 MOL1         0.1003
      26    H12     14.570683   19.030759   23.670604 H          1 MOL1         0.0783
      27    O7      16.304444   20.095684   24.089336 O.3        1 MOL1        -0.5519
      28    H13     16.102839   21.049879   23.934369 H          1 MOL1         0.3769
      29    C9      16.266249   18.072887   22.742478 C.3        1 MOL1         0.1053
      30    H14     17.213318   18.397486   22.300575 H          1 MOL1         0.0783
      31    O8      16.517277   17.282180   23.906714 O.3        1 MOL1        -0.5519
      32    H15     16.726452   17.941625   24.606746 H          1 MOL1         0.3769
      33    C10     15.505304   17.259487   21.667094 C.3        1 MOL1         0.1018
      34    H16     14.677643   16.720956   22.147596 H          1 MOL1         0.0783
      35    C11     14.963497   18.167431   20.526575 C.3        1 MOL1         0.1043
      36    H17     15.817109   18.498658   19.921017 H          1 MOL1         0.0783
      37    O9      14.296184   19.333191   21.072960 O.3        1 MOL1        -0.3740
      38    C12     13.982448   17.438039   19.577785 C.3        1 MOL1         0.0138
      39    H18     14.551319   16.712823   18.980159 H          1 MOL1         0.0794
      40    H19     13.556505   18.172695   18.881359 H          1 MOL1         0.0794
      41    O10     12.938700   16.764329   20.292611 O.3        1 MOL1        -0.5486
      42    H20     12.317116   16.390757   19.630158 H          1 MOL1         0.3769
      43    C13     18.531953   24.035315   20.640619 C.3        1 MOL1         0.2972
      44    H21     18.878456   25.036829   20.354838 H          1 MOL1         0.0751
      45    O11     19.624028   23.189596   21.061642 O.3        1 MOL1        -0.3740
      46    C14     17.509725   24.119480   21.801588 C.3        1 MOL1         0.1003
      47    H22     16.655651   24.706183   21.438644 H          1 MOL1         0.0783
      48    O12     18.068523   24.777537   22.949256 O.3        1 MOL1        -0.5519
      49    H23     18.976412   24.408415   23.095896 H          1 MOL1         0.3769
      50    C15     16.987505   22.710981   22.179634 C.3        1 MOL1         0.1053
      51    H24     17.826568   22.129698   22.586012 H          1 MOL1         0.0783
      52    O13     15.971399   22.861809   23.177158 O.3        1 MOL1        -0.5519
      53    H25     16.302969   23.579772   23.764320 H          1 MOL1         0.3769
      54    C16     16.438047   21.969669   20.926459 C.3        1 MOL1         0.1018
      55    H26     15.481631   22.421594   20.634117 H          1 MOL1         0.0783
      56    C17     17.424518   22.048361   19.729526 C.3        1 MOL1         0.1043
      57    H27     18.294745   21.430000   19.969982 H          1 MOL1         0.0783
      58    O14     17.864599   23.411167   19.523454 O.3        1 MOL1        -0.3740
      59    C18     16.835735   21.510352   18.401648 C.3        1 MOL1         0.0138
      60    H28     16.763468   20.416832   18.466967 H          1 MOL1         0.0794
      61    H29     17.538919   21.740500   17.590294 H          1 MOL1         0.0794
      62    O15     15.546188   22.059619   18.105318 O.3        1 MOL1        -0.5486
      63    H30     14.901269   21.647065   18.719152 H          1 MOL1         0.3769
      64    C19     23.717373   22.959241   21.414655 C.3        1 MOL1         0.2972
      65    H31     24.806854   23.089724   21.445187 H          1 MOL1         0.0751
      66    O16     23.348066   21.560035   21.425068 O.3        1 MOL1        -0.3740
      67    C20     23.027662   23.692907   22.593689 C.3        1 MOL1         0.1003
      68    H32     23.188729   24.768486   22.442867 H          1 MOL1         0.0783
      69    O17     23.582559   23.323214   23.863252 O.3        1 MOL1        -0.5519
      70    H33     23.423925   22.353141   23.976140 H          1 MOL1         0.3769
      71    C21     21.502891   23.432246   22.550928 C.3        1 MOL1         0.1053
      72    H34     21.331392   22.359960   22.707783 H          1 MOL1         0.0783
      73    O18     20.862324   24.177183   23.590323 O.3        1 MOL1        -0.5519
      74    H35     21.435125   24.058568   24.380970 H          1 MOL1         0.3769
      75    C22     20.912986   23.830303   21.172919 C.3        1 MOL1         0.1018
      76    H36     20.830882   24.924952   21.148627 H          1 MOL1         0.0783
      77    C23     21.773492   23.343874   19.968606 C.3        1 MOL1         0.1043
      78    H37     21.606874   22.269726   19.840981 H          1 MOL1         0.0783
      79    O19     23.186648   23.556454   20.212904 O.3        1 MOL1        -0.3740
      80    C24     21.395451   24.025504   18.631792 C.3        1 MOL1         0.0138
      81    H38     20.406166   23.661692   18.322638 H          1 MOL1         0.0794
      82    H39     22.113770   23.711605   17.862651 H          1 MOL1         0.0794
      83    O20     21.374622   25.454451   18.740854 O.3        1 MOL1        -0.5486
      84    H40     21.186022   25.818375   17.848291 H          1 MOL1         0.3769
      85    C25     24.693096   17.723440   22.248856 C.3        1 MOL1         0.2972
      86    H41     25.262625   16.834834   22.548322 H          1 MOL1         0.0751
      87    O21     23.524367   17.375008   21.478986 O.3        1 MOL1        -0.3740
      88    C26     24.237481   18.522886   23.495083 C.3        1 MOL1         0.1003
      89    H42     25.143860   18.831748   24.032339 H          1 MOL1         0.0783
      90    O22     23.413325   17.728060   24.366510 O.3        1 MOL1        -0.5519
      91    H43     23.665851   16.784460   24.212675 H          1 MOL1         0.3769
      92    C27     23.466255   19.790586   23.064928 C.3        1 MOL1         0.1053
      93    H44     22.552682   19.462209   22.560765 H          1 MOL1         0.0783
      94    O23     23.131944   20.542174   24.235536 O.3        1 MOL1        -0.5519
      95    H45     23.191709   19.895667   24.974310 H          1 MOL1         0.3769
      96    C28     24.272514   20.645892   22.054617 C.3        1 MOL1         0.1018
      97    H46     25.071185   21.171810   22.594509 H          1 MOL1         0.0783
      98    C29     24.878943   19.779140   20.913884 C.3        1 MOL1         0.1043
      99    H47     24.060057   19.467025   20.252803 H          1 MOL1         0.0783
     100    O24     25.522322   18.595742   21.451561 O.3        1 MOL1        -0.3740
     101    C30     25.904811   20.544802   20.044374 C.3        1 MOL1         0.0138
     102    H48     25.364871   21.290798   19.445439 H          1 MOL1         0.0794
     103    H49     26.368781   19.837255   19.344193 H          1 MOL1         0.0794
     104    O25     26.907819   21.193256   20.836736 O.3        1 MOL1        -0.5486
     105    H50     27.560118   21.594219   20.221517 H          1 MOL1         0.3769
     106    C31     21.315329   13.923040   20.653912 C.3        1 MOL1         0.2972
     107    H51     20.998796   12.932407   20.302732 H          1 MOL1         0.0751
     108    O26     20.193993   14.725542   21.077355 O.3        1 MOL1        -0.3740
     109    C32     22.278661   13.791309   21.860441 C.3        1 MOL1         0.1003
     110    H52     23.144757   13.206154   21.524713 H          1 MOL1         0.0783
     111    O27     21.643437   13.106938   22.952933 O.3        1 MOL1        -0.5519
     112    H53     20.723407   13.464955   23.035320 H          1 MOL1         0.3769
     113    C33     22.791323   15.179928   22.319291 C.3        1 MOL1         0.1053
     114    H54     21.938639   15.734075   22.731059 H          1 MOL1         0.0783
     115    O28     23.776169   14.986402   23.340525 O.3        1 MOL1        -0.5519
     116    H55     23.420952   14.254921   23.895741 H          1 MOL1         0.3769
     117    C34     23.372212   15.986178   21.120585 C.3        1 MOL1         0.1018
     118    H56     24.332612   15.546215   20.822783 H          1 MOL1         0.0783
     119    C35     22.408025   15.977872   19.904922 C.3        1 MOL1         0.1043
     120    H57     21.518335   16.558104   20.174296 H          1 MOL1         0.0783
     121    O29     22.011822   14.621471   19.600276 O.3        1 MOL1        -0.3740
     122    C36     23.001422   16.625645   18.629035 C.3        1 MOL1         0.0138
     123    H58     23.001395   17.716012   18.758608 H          1 MOL1         0.0794
     124    H59     22.338807   16.400971   17.782756 H          1 MOL1         0.0794
     125    O30     24.331701   16.175745   18.346293 O.3        1 MOL1        -0.5486
     126    H60     24.925354   16.572644   19.019595 H          1 MOL1         0.3769
     127    N1      20.705351   18.790529   24.774017 N.4        1 MOL1        -0.5919
     128    H1      20.449984   18.796017   25.766327 H          1 MOL1         0.3682
     129    H2      21.597077   18.273968   24.691339 H          1 MOL1         0.3682
     130    H3      20.906201   19.759422   24.500345 H          1 MOL1         0.3682
     131    C1      19.626068   18.166147   23.915065 C.3        1 MOL1         0.0252
     132    H4      18.699278   18.727258   24.064868 H          1 MOL1         0.0971
     133    H5      19.469417   17.145011   24.274009 H          1 MOL1         0.0971
     134    C2      19.976957   18.130559   22.417229 C.3        1 MOL1        -0.1369
     135    H6      20.981851   17.714930   22.288062 H          1 MOL1         0.0997
     136    H7      19.289415   17.439112   21.916430 H          1 MOL1         0.0997
     137    C3      19.885398   19.522677   21.747957 C.3        1 MOL1        -0.1329
     138    H8      20.497089   20.245652   22.300451 H          1 MOL1         0.0997
     139    H9      18.855774   19.897580   21.809170 H          1 MOL1         0.0997
     140    C4      20.347812   19.507182   20.272489 C.3        1 MOL1        -0.1305
     141    H10     20.337749   20.533592   19.890256 H          1 MOL1         0.0997
     142    H11     21.391566   19.168924   20.212552 H          1 MOL1         0.0997
     143    C5      19.454952   18.634742   19.362513 C.3        1 MOL1        -0.2320
     144    H12     18.396348   18.901459   19.473372 H          1 MOL1         0.1008
     145    H13     19.730686   18.766556   18.308386 H          1 MOL1         0.1008
     146    H14     19.562069   17.571955   19.601300 H          1 MOL1         0.1008
@<TRIPOS>BOND
    1     1     2    1
    2     1     3    1
    3     1     4    1
    4     4     5    1
    5     4     6    1
    6     6     7    1
    7     4     8    1
    8     8     9    1
    9     8    10    1
   10    10    11    1
   11     8    12    1
   12    12    13    1
   13    12    14    1
   14    14    15    1
   15     1    16    1
   16    14    16    1
   17    14    17    1
   18    17    18    1
   19    17    19    1
   20    17    20    1
   21    20    21    1
   22    22    23    1
   23    22    24    1
   24    22    25    1
   25    25    26    1
   26    25    27    1
   27    27    28    1
   28    25    29    1
   29    29    30    1
   30    29    31    1
   31    31    32    1
   32     3    33    1
   33    29    33    1
   34    33    34    1
   35    33    35    1
   36    35    36    1
   37    22    37    1
   38    35    37    1
   39    35    38    1
   40    38    39    1
   41    38    40    1
   42    38    41    1
   43    41    42    1
   44    43    44    1
   45    43    45    1
   46    43    46    1
   47    46    47    1
   48    46    48    1
   49    48    49    1
   50    46    50    1
   51    50    51    1
   52    50    52    1
   53    52    53    1
   54    24    54    1
   55    50    54    1
   56    54    55    1
   57    54    56    1
   58    56    57    1
   59    43    58    1
   60    56    58    1
   61    56    59    1
   62    59    60    1
   63    59    61    1
   64    59    62    1
   65    62    63    1
   66    64    65    1
   67    64    66    1
   68    64    67    1
   69    67    68    1
   70    67    69    1
   71    69    70    1
   72    67    71    1
   73    71    72    1
   74    71    73    1
   75    73    74    1
   76    45    75    1
   77    71    75    1
   78    75    76    1
   79    75    77    1
   80    77    78    1
   81    64    79    1
   82    77    79    1
   83    77    80    1
   84    80    81    1
   85    80    82    1
   86    80    83    1
   87    83    84    1
   88    85    86    1
   89    85    87    1
   90    85    88    1
   91    88    89    1
   92    88    90    1
   93    90    91    1
   94    88    92    1
   95    92    93    1
   96    92    94    1
   97    94    95    1
   98    66    96    1
   99    92    96    1
  100    96    97    1
  101    96    98    1
  102    98    99    1
  103    85   100    1
  104    98   100    1
  105    98   101    1
  106   101   102    1
  107   101   103    1
  108   101   104    1
  109   104   105    1
  110   106   107    1
  111    12   108    1
  112   106   108    1
  113   106   109    1
  114   109   110    1
  115   109   111    1
  116   111   112    1
  117   109   113    1
  118   113   114    1
  119   113   115    1
  120   115   116    1
  121    87   117    1
  122   113   117    1
  123   117   118    1
  124   117   119    1
  125   119   120    1
  126   106   121    1
  127   119   121    1
  128   119   122    1
  129   122   123    1
  130   122   124    1
  131   122   125    1
  132   125   126    1
  133   127   128    1
  134   127   129    1
  135   127   130    1
  136   127   131    1
  137   131   132    1
  138   131   133    1
  139   131   134    1
  140   134   135    1
  141   134   136    1
  142   134   137    1
  143   137   138    1
  144   137   139    1
  145   137   140    1
  146   140   141    1
  147   140   142    1
  148   140   143    1
  149   143   144    1
  150   143   145    1
  151   143   146    1
@<TRIPOS>SUBSTRUCTURE
       1 MOL1            1 RESIDUE      1      MOL     
       2 MOL1          146 RESIDUE      1      MOL     
@<SCITEGIC>MOL_PROPERTY
feprocess Rank
SciTegic.value.IntegerValue
8

@<SCITEGIC>MOL_PROPERTY
Conf_Id
SciTegic.value.IntegerValue
373

@<SCITEGIC>MOL_PROPERTY
Probability
SciTegic.value.DoubleValue
1.00

@<SCITEGIC>MOL_PROPERTY
G
SciTegic.value.DoubleValue
559.424

@<SCITEGIC>MOL_PROPERTY
E
SciTegic.value.DoubleValue
365.048

@<SCITEGIC>MOL_PROPERTY
-TS
SciTegic.value.DoubleValue
194.376

@<SCITEGIC>MOL_PROPERTY
U+W
SciTegic.value.DoubleValue
236.277

@<SCITEGIC>MOL_PROPERTY
U
SciTegic.value.DoubleValue
323.469

@<SCITEGIC>MOL_PROPERTY
W
SciTegic.value.DoubleValue
-87.192

@<SCITEGIC>MOL_PROPERTY
W(PB)
SciTegic.value.DoubleValue
-93.297

@<SCITEGIC>MOL_PROPERTY
W(SA)
SciTegic.value.DoubleValue
6.105

@<SCITEGIC>MOL_PROPERTY
Valence
SciTegic.value.DoubleValue
146.162

@<SCITEGIC>MOL_PROPERTY
Coulomb
SciTegic.value.DoubleValue
199.569

@<SCITEGIC>MOL_PROPERTY
VdW
SciTegic.value.DoubleValue
-22.262

@<SCITEGIC>MOL_PROPERTY
VdW6
SciTegic.value.DoubleValue
-178.054

@<SCITEGIC>MOL_PROPERTY
VdW12
SciTegic.value.DoubleValue
155.792

@<SCITEGIC>MOL_PROPERTY
Bond
SciTegic.value.DoubleValue
4.814

@<SCITEGIC>MOL_PROPERTY
Angle
SciTegic.value.DoubleValue
12.145

@<SCITEGIC>MOL_PROPERTY
Pdih
SciTegic.value.DoubleValue
129.202

@<SCITEGIC>MOL_PROPERTY
Idih
SciTegic.value.DoubleValue
0.000

@<SCITEGIC>MOL_PROPERTY
Tether
SciTegic.value.DoubleValue
0.000

