@<TRIPOS>MOLECULE
CD_guest-s19_fast_vm2_rndm.mol2 : feprocess host+ligand conformer 1
         143         148           2
SMALL
USER_CHARGES
 
@<TRIPOS>ATOM
       1    C1      16.388389   15.625194   22.253671 C.3        1 MOL1         0.2972
       2    H1      15.350176   15.619418   22.604196 H          1 MOL1         0.0751
       3    O1      16.640630   16.692943   21.317690 O.3        1 MOL1        -0.3740
       4    C2      17.357815   15.791574   23.449667 C.3        1 MOL1         0.1003
       5    H2      17.219656   14.918736   24.100465 H          1 MOL1         0.0783
       6    O2      17.051784   16.979500   24.200128 O.3        1 MOL1        -0.5519
       7    H3      17.766347   17.646412   24.022405 H          1 MOL1         0.3769
       8    C3      18.826026   15.790178   22.956185 C.3        1 MOL1         0.1053
       9    H4      18.975530   16.673526   22.322612 H          1 MOL1         0.0783
      10    O3      19.706539   15.843302   24.083979 O.3        1 MOL1        -0.5519
      11    H5      19.670192   16.780024   24.407414 H          1 MOL1         0.3769
      12    C4      19.135270   14.543641   22.086967 C.3        1 MOL1         0.1018
      13    H6      19.241323   13.670336   22.744048 H          1 MOL1         0.0783
      14    C5      18.032339   14.280837   21.021377 C.3        1 MOL1         0.1043
      15    H7      18.127482   15.048628   20.242530 H          1 MOL1         0.0783
      16    O4      16.709332   14.372121   21.610304 O.3        1 MOL1        -0.3740
      17    C6      18.168659   12.905089   20.326190 C.3        1 MOL1         0.0138
      18    H8      19.055095   12.930073   19.677850 H          1 MOL1         0.0794
      19    H9      17.294843   12.751310   19.678980 H          1 MOL1         0.0794
      20    O5      18.287051   11.831442   21.268410 O.3        1 MOL1        -0.5486
      21    H10     18.296096   10.990148   20.761659 H          1 MOL1         0.3769
      22    C7      14.946597   20.195034   20.059391 C.3        1 MOL1         0.2972
      23    H11     14.393550   21.021841   19.595458 H          1 MOL1         0.0751
      24    O6      16.168040   20.648789   20.682176 O.3        1 MOL1        -0.3740
      25    C8      14.085340   19.482775   21.128075 C.3        1 MOL1         0.1003
      26    H12     13.217810   19.055039   20.608703 H          1 MOL1         0.0783
      27    O7      13.619496   20.404794   22.125713 O.3        1 MOL1        -0.5519
      28    H13     14.409322   20.900457   22.461668 H          1 MOL1         0.3769
      29    C9      14.866185   18.314591   21.781800 C.3        1 MOL1         0.1053
      30    H14     15.673051   18.741660   22.394220 H          1 MOL1         0.0783
      31    O8      13.952170   17.590369   22.611804 O.3        1 MOL1        -0.5519
      32    H15     13.513082   18.272804   23.165747 H          1 MOL1         0.3769
      33    C10     15.511023   17.366407   20.724437 C.3        1 MOL1         0.1018
      34    H16     14.758384   16.649061   20.375147 H          1 MOL1         0.0783
      35    C11     16.120352   18.122573   19.509619 C.3        1 MOL1         0.1043
      36    H17     17.071200   18.549112   19.840441 H          1 MOL1         0.0783
      37    O9      15.265062   19.201132   19.065710 O.3        1 MOL1        -0.3740
      38    C12     16.441940   17.210379   18.300717 C.3        1 MOL1         0.0138
      39    H18     17.281728   16.556058   18.568751 H          1 MOL1         0.0794
      40    H19     16.780196   17.843534   17.469855 H          1 MOL1         0.0794
      41    O10     15.319973   16.418812   17.889911 O.3        1 MOL1        -0.5486
      42    H20     15.182554   15.722414   18.566499 H          1 MOL1         0.3769
      43    C13     18.435080   24.053708   21.399072 C.3        1 MOL1         0.2972
      44    H21     18.838338   25.070094   21.494729 H          1 MOL1         0.0751
      45    O11     19.467144   23.056087   21.545292 O.3        1 MOL1        -0.3740
      46    C14     17.314351   23.789595   22.438387 C.3        1 MOL1         0.1003
      47    H22     16.490193   24.475012   22.201049 H          1 MOL1         0.0783
      48    O12     17.749906   24.051309   23.779919 O.3        1 MOL1        -0.5519
      49    H23     18.532430   23.469446   23.952955 H          1 MOL1         0.3769
      50    C15     16.777154   22.343159   22.294993 C.3        1 MOL1         0.1053
      51    H24     17.585269   21.640098   22.543256 H          1 MOL1         0.0783
      52    O13     15.678625   22.161804   23.194124 O.3        1 MOL1        -0.5519
      53    H25     15.984133   22.540872   24.048468 H          1 MOL1         0.3769
      54    C16     16.318707   22.075106   20.837749 C.3        1 MOL1         0.1018
      55    H26     15.371061   22.605601   20.675625 H          1 MOL1         0.0783
      56    C17     17.367824   22.544011   19.789250 C.3        1 MOL1         0.1043
      57    H27     18.220588   21.857000   19.831972 H          1 MOL1         0.0783
      58    O14     17.835065   23.882348   20.097074 O.3        1 MOL1        -0.3740
      59    C18     16.835553   22.527564   18.336474 C.3        1 MOL1         0.0138
      60    H28     16.715575   21.481646   18.022472 H          1 MOL1         0.0794
      61    H29     17.591641   22.980179   17.681156 H          1 MOL1         0.0794
      62    O15     15.586259   23.219268   18.210390 O.3        1 MOL1        -0.5486
      63    H30     15.340992   23.219016   17.259533 H          1 MOL1         0.3769
      64    C19     23.365545   22.274347   22.605951 C.3        1 MOL1         0.2972
      65    H31     24.399777   22.275046   22.972065 H          1 MOL1         0.0751
      66    O16     23.087052   21.105439   21.808976 O.3        1 MOL1        -0.3740
      67    C20     22.384481   22.329505   23.803004 C.3        1 MOL1         0.1003
      68    H32     22.563801   23.284989   24.312718 H          1 MOL1         0.0783
      69    O17     22.619671   21.264333   24.740131 O.3        1 MOL1        -0.5519
      70    H33     22.317205   20.406268   24.338597 H          1 MOL1         0.3769
      71    C21     20.919286   22.330338   23.312926 C.3        1 MOL1         0.1053
      72    H34     20.720386   21.369602   22.832494 H          1 MOL1         0.0783
      73    O18     20.049801   22.496498   24.436157 O.3        1 MOL1        -0.5519
      74    H35     20.321149   21.801161   25.077053 H          1 MOL1         0.3769
      75    C22     20.665203   23.434322   22.255129 C.3        1 MOL1         0.1018
      76    H36     20.558448   24.399754   22.767218 H          1 MOL1         0.0783
      77    C23     21.793207   23.510485   21.184989 C.3        1 MOL1         0.1043
      78    H37     21.666661   22.650274   20.517234 H          1 MOL1         0.0783
      79    O19     23.110806   23.440166   21.792200 O.3        1 MOL1        -0.3740
      80    C24     21.719962   24.782530   20.307518 C.3        1 MOL1         0.0138
      81    H38     20.835689   24.707671   19.659982 H          1 MOL1         0.0794
      82    H39     22.602102   24.809650   19.653924 H          1 MOL1         0.0794
      83    O20     21.645071   25.977512   21.095040 O.3        1 MOL1        -0.5486
      84    H40     21.671869   26.742275   20.479360 H          1 MOL1         0.3769
      85    C25     24.846030   17.785989   20.184714 C.3        1 MOL1         0.2972
      86    H41     25.418276   17.012387   19.656677 H          1 MOL1         0.0751
      87    O21     23.590227   17.272072   20.683124 O.3        1 MOL1        -0.3740
      88    C26     25.660702   18.385472   21.356861 C.3        1 MOL1         0.1003
      89    H42     26.527866   18.894164   20.915692 H          1 MOL1         0.0783
      90    O22     26.133825   17.371861   22.255772 O.3        1 MOL1        -0.5519
      91    H43     25.335900   16.913192   22.622243 H          1 MOL1         0.3769
      92    C27     24.824545   19.449311   22.110178 C.3        1 MOL1         0.1053
      93    H44     23.997184   18.937760   22.623468 H          1 MOL1         0.0783
      94    O23     25.670469   20.091628   23.069613 O.3        1 MOL1        -0.5519
      95    H45     26.108963   19.360926   23.558172 H          1 MOL1         0.3769
      96    C28     24.217064   20.506058   21.141321 C.3        1 MOL1         0.1018
      97    H46     24.987865   21.252428   20.912791 H          1 MOL1         0.0783
      98    C29     23.677414   19.902318   19.807340 C.3        1 MOL1         0.1043
      99    H47     22.711191   19.433662   20.008194 H          1 MOL1         0.0783
     100    O24     24.572439   18.886929   19.293575 O.3        1 MOL1        -0.3740
     101    C30     23.422050   20.945658   18.690659 C.3        1 MOL1         0.0138
     102    H48     22.475269   21.458025   18.898966 H          1 MOL1         0.0794
     103    H49     23.288626   20.409720   17.741473 H          1 MOL1         0.0794
     104    O25     24.476554   21.907863   18.565933 O.3        1 MOL1        -0.5486
     105    H50     24.430065   22.501349   19.346316 H          1 MOL1         0.3769
     106    C31     21.408389   13.842282   21.417687 C.3        1 MOL1         0.2972
     107    H51     21.009953   12.828199   21.550484 H          1 MOL1         0.0751
     108    O26     20.348367   14.823333   21.354374 O.3        1 MOL1        -0.3740
     109    C32     22.407227   14.208723   22.545855 C.3        1 MOL1         0.1003
     110    H52     23.270296   13.539177   22.435321 H          1 MOL1         0.0783
     111    O27     21.848947   14.008489   23.851894 O.3        1 MOL1        -0.5519
     112    H53     21.091565   14.639351   23.941790 H          1 MOL1         0.3769
     113    C33     22.916681   15.660235   22.358333 C.3        1 MOL1         0.1053
     114    H54     22.069100   16.350336   22.475625 H          1 MOL1         0.0783
     115    O28     23.908084   15.936000   23.352392 O.3        1 MOL1        -0.5519
     116    H55     23.486009   15.699928   24.208074 H          1 MOL1         0.3769
     117    C34     23.517159   15.853025   20.938378 C.3        1 MOL1         0.1018
     118    H56     24.510066   15.384508   20.918415 H          1 MOL1         0.0783
     119    C35     22.625570   15.240157   19.817496 C.3        1 MOL1         0.1043
     120    H57     21.751856   15.886755   19.686352 H          1 MOL1         0.0783
     121    O29     22.158818   13.917729   20.186866 O.3        1 MOL1        -0.3740
     122    C36     23.333681   15.153023   18.444731 C.3        1 MOL1         0.0138
     123    H58     23.451403   16.171612   18.050212 H          1 MOL1         0.0794
     124    H59     22.682302   14.607380   17.749000 H          1 MOL1         0.0794
     125    O30     24.613995   14.514935   18.535243 O.3        1 MOL1        -0.5486
     126    H60     24.969212   14.429805   17.623626 H          1 MOL1         0.3769
     127    C1      20.378380   18.816933   23.475675 C.2        1 MOL1         0.6173
     128    O1      21.404209   18.777215   24.125208 O.co2      1 MOL1        -0.6755
     129    O2      19.269834   18.698654   23.965135 O.co2      1 MOL1        -0.6755
     130    C2      20.521731   18.993168   22.009969 C.2        1 MOL1        -0.1504
     131    H1      21.541478   18.972806   21.649962 H          1 MOL1         0.0814
     132    C3      19.495724   19.207327   21.157370 C.2        1 MOL1        -0.1394
     133    H2      18.470211   19.248116   21.522706 H          1 MOL1         0.0817
     134    C4      19.685465   19.447930   19.674383 C.3        1 MOL1        -0.1849
     135    H3      20.397218   20.268976   19.521922 H          1 MOL1         0.0736
     136    H4      18.741791   19.774249   19.223193 H          1 MOL1         0.0736
     137    C5      20.184613   18.183336   18.951131 C.3        1 MOL1        -0.1866
     138    H5      21.178218   17.922988   19.331282 H          1 MOL1         0.0738
     139    H6      19.522341   17.337855   19.180980 H          1 MOL1         0.0738
     140    C6      20.262229   18.387214   17.425945 C.3        1 MOL1        -0.2879
     141    H7      19.274662   18.625346   17.010480 H          1 MOL1         0.0750
     142    H8      20.946940   19.207400   17.174919 H          1 MOL1         0.0750
     143    H9      20.627789   17.477211   16.933232 H          1 MOL1         0.0750
@<TRIPOS>BOND
    1     1     2    1
    2     1     3    1
    3     1     4    1
    4     4     5    1
    5     4     6    1
    6     6     7    1
    7     4     8    1
    8     8     9    1
    9     8    10    1
   10    10    11    1
   11     8    12    1
   12    12    13    1
   13    12    14    1
   14    14    15    1
   15     1    16    1
   16    14    16    1
   17    14    17    1
   18    17    18    1
   19    17    19    1
   20    17    20    1
   21    20    21    1
   22    22    23    1
   23    22    24    1
   24    22    25    1
   25    25    26    1
   26    25    27    1
   27    27    28    1
   28    25    29    1
   29    29    30    1
   30    29    31    1
   31    31    32    1
   32     3    33    1
   33    29    33    1
   34    33    34    1
   35    33    35    1
   36    35    36    1
   37    22    37    1
   38    35    37    1
   39    35    38    1
   40    38    39    1
   41    38    40    1
   42    38    41    1
   43    41    42    1
   44    43    44    1
   45    43    45    1
   46    43    46    1
   47    46    47    1
   48    46    48    1
   49    48    49    1
   50    46    50    1
   51    50    51    1
   52    50    52    1
   53    52    53    1
   54    24    54    1
   55    50    54    1
   56    54    55    1
   57    54    56    1
   58    56    57    1
   59    43    58    1
   60    56    58    1
   61    56    59    1
   62    59    60    1
   63    59    61    1
   64    59    62    1
   65    62    63    1
   66    64    65    1
   67    64    66    1
   68    64    67    1
   69    67    68    1
   70    67    69    1
   71    69    70    1
   72    67    71    1
   73    71    72    1
   74    71    73    1
   75    73    74    1
   76    45    75    1
   77    71    75    1
   78    75    76    1
   79    75    77    1
   80    77    78    1
   81    64    79    1
   82    77    79    1
   83    77    80    1
   84    80    81    1
   85    80    82    1
   86    80    83    1
   87    83    84    1
   88    85    86    1
   89    85    87    1
   90    85    88    1
   91    88    89    1
   92    88    90    1
   93    90    91    1
   94    88    92    1
   95    92    93    1
   96    92    94    1
   97    94    95    1
   98    66    96    1
   99    92    96    1
  100    96    97    1
  101    96    98    1
  102    98    99    1
  103    85   100    1
  104    98   100    1
  105    98   101    1
  106   101   102    1
  107   101   103    1
  108   101   104    1
  109   104   105    1
  110   106   107    1
  111    12   108    1
  112   106   108    1
  113   106   109    1
  114   109   110    1
  115   109   111    1
  116   111   112    1
  117   109   113    1
  118   113   114    1
  119   113   115    1
  120   115   116    1
  121    87   117    1
  122   113   117    1
  123   117   118    1
  124   117   119    1
  125   119   120    1
  126   106   121    1
  127   119   121    1
  128   119   122    1
  129   122   123    1
  130   122   124    1
  131   122   125    1
  132   125   126    1
  133   127   128    1
  134   127   129    2
  135   127   130    1
  136   130   131    1
  137   130   132    2
  138   132   133    1
  139   132   134    1
  140   134   135    1
  141   134   136    1
  142   134   137    1
  143   137   138    1
  144   137   139    1
  145   137   140    1
  146   140   141    1
  147   140   142    1
  148   140   143    1
@<TRIPOS>SUBSTRUCTURE
       1 MOL1            1 RESIDUE      1      MOL     
       2 MOL1          143 RESIDUE      1      MOL     
@<SCITEGIC>MOL_PROPERTY
feprocess Rank
SciTegic.value.IntegerValue
1

@<SCITEGIC>MOL_PROPERTY
Conf_Id
SciTegic.value.IntegerValue
61

@<SCITEGIC>MOL_PROPERTY
Probability
SciTegic.value.DoubleValue
74.75

@<SCITEGIC>MOL_PROPERTY
G
SciTegic.value.DoubleValue
494.785

@<SCITEGIC>MOL_PROPERTY
E
SciTegic.value.DoubleValue
312.454

@<SCITEGIC>MOL_PROPERTY
-TS
SciTegic.value.DoubleValue
182.331

@<SCITEGIC>MOL_PROPERTY
U+W
SciTegic.value.DoubleValue
186.366

@<SCITEGIC>MOL_PROPERTY
U
SciTegic.value.DoubleValue
258.617

@<SCITEGIC>MOL_PROPERTY
W
SciTegic.value.DoubleValue
-72.248

@<SCITEGIC>MOL_PROPERTY
W(PB)
SciTegic.value.DoubleValue
-78.262

@<SCITEGIC>MOL_PROPERTY
W(SA)
SciTegic.value.DoubleValue
6.014

@<SCITEGIC>MOL_PROPERTY
Valence
SciTegic.value.DoubleValue
146.099

@<SCITEGIC>MOL_PROPERTY
Coulomb
SciTegic.value.DoubleValue
135.525

@<SCITEGIC>MOL_PROPERTY
VdW
SciTegic.value.DoubleValue
-23.008

@<SCITEGIC>MOL_PROPERTY
VdW6
SciTegic.value.DoubleValue
-181.970

@<SCITEGIC>MOL_PROPERTY
VdW12
SciTegic.value.DoubleValue
158.962

@<SCITEGIC>MOL_PROPERTY
Bond
SciTegic.value.DoubleValue
5.232

@<SCITEGIC>MOL_PROPERTY
Angle
SciTegic.value.DoubleValue
15.967

@<SCITEGIC>MOL_PROPERTY
Pdih
SciTegic.value.DoubleValue
124.893

@<SCITEGIC>MOL_PROPERTY
Idih
SciTegic.value.DoubleValue
0.007

@<SCITEGIC>MOL_PROPERTY
Tether
SciTegic.value.DoubleValue
0.000

