@<TRIPOS>MOLECULE
CD_guest-s17_fast_vm2_rndm.mol2 : feprocess host+ligand conformer 1
         151         157           2
SMALL
USER_CHARGES
 
@<TRIPOS>ATOM
       1    C1      16.300871   15.343314   20.422474 C.3        1 MOL1         0.2972
       2    H1      15.314903   15.217589   19.956708 H          1 MOL1         0.0751
       3    O1      16.425406   16.622552   21.073744 O.3        1 MOL1        -0.3740
       4    C2      16.543655   14.250665   21.495445 C.3        1 MOL1         0.1003
       5    H2      16.461016   13.275445   20.998414 H          1 MOL1         0.0783
       6    O2      15.560909   14.337255   22.540879 O.3        1 MOL1        -0.5519
       7    H3      15.478941   15.292450   22.790264 H          1 MOL1         0.3769
       8    C3      17.969199   14.367087   22.090146 C.3        1 MOL1         0.1053
       9    H4      18.017805   15.292465   22.674682 H          1 MOL1         0.0783
      10    O3      18.231621   13.248291   22.943321 O.3        1 MOL1        -0.5519
      11    H5      17.428437   13.157256   23.502382 H          1 MOL1         0.3769
      12    C4      19.045738   14.450972   20.980980 C.3        1 MOL1         0.1018
      13    H6      19.142782   13.462257   20.513518 H          1 MOL1         0.0783
      14    C5      18.684227   15.500613   19.893155 C.3        1 MOL1         0.1043
      15    H7      18.721025   16.499714   20.344665 H          1 MOL1         0.0783
      16    O4      17.340446   15.238752   19.425237 O.3        1 MOL1        -0.3740
      17    C6      19.631365   15.528244   18.665447 C.3        1 MOL1         0.0138
      18    H8      20.448941   16.229401   18.871361 H          1 MOL1         0.0794
      19    H9      19.078055   15.933705   17.807879 H          1 MOL1         0.0794
      20    O5      20.172557   14.243849   18.335665 O.3        1 MOL1        -0.5486
      21    H10     20.889807   14.059558   18.986008 H          1 MOL1         0.3769
      22    C7      14.594718   20.313138   21.344425 C.3        1 MOL1         0.2972
      23    H11     13.921287   21.179913   21.342047 H          1 MOL1         0.0751
      24    O6      15.973229   20.701386   21.505816 O.3        1 MOL1        -0.3740
      25    C8      14.238753   19.333355   22.490819 C.3        1 MOL1         0.1003
      26    H12     13.221133   18.964582   22.307738 H          1 MOL1         0.0783
      27    O7      14.280717   19.989210   23.768198 O.3        1 MOL1        -0.5519
      28    H13     15.131699   20.494839   23.816866 H          1 MOL1         0.3769
      29    C9      15.199807   18.120715   22.471591 C.3        1 MOL1         0.1053
      30    H14     16.205339   18.488073   22.710314 H          1 MOL1         0.0783
      31    O8      14.788350   17.157988   23.448634 O.3        1 MOL1        -0.5519
      32    H15     14.602150   17.681057   24.259551 H          1 MOL1         0.3769
      33    C10     15.250768   17.455710   21.074494 C.3        1 MOL1         0.1018
      34    H16     14.331711   16.869384   20.942891 H          1 MOL1         0.0783
      35    C11     15.399273   18.486214   19.917842 C.3        1 MOL1         0.1043
      36    H17     16.426593   18.873701   19.935391 H          1 MOL1         0.0783
      37    O9      14.474542   19.586829   20.103669 O.3        1 MOL1        -0.3740
      38    C12     15.157309   17.886498   18.511395 C.3        1 MOL1         0.0138
      39    H18     16.011186   17.247116   18.251355 H          1 MOL1         0.0794
      40    H19     15.133087   18.706656   17.781458 H          1 MOL1         0.0794
      41    O10     13.943164   17.127272   18.447032 O.3        1 MOL1        -0.5486
      42    H20     13.822189   16.838193   17.516292 H          1 MOL1         0.3769
      43    C13     18.541868   23.904123   21.756044 C.3        1 MOL1         0.2972
      44    H21     19.032625   24.880827   21.853630 H          1 MOL1         0.0751
      45    O11     19.461387   22.886985   21.312708 O.3        1 MOL1        -0.3740
      46    C14     17.946005   23.464637   23.115859 C.3        1 MOL1         0.1003
      47    H22     17.191013   24.210518   23.396626 H          1 MOL1         0.0783
      48    O12     18.963524   23.416420   24.130663 O.3        1 MOL1        -0.5519
      49    H23     19.729655   23.937675   23.785125 H          1 MOL1         0.3769
      50    C15     17.243987   22.092018   22.978092 C.3        1 MOL1         0.1053
      51    H24     18.006191   21.335600   22.757434 H          1 MOL1         0.0783
      52    O13     16.589047   21.766632   24.207732 O.3        1 MOL1        -0.5519
      53    H25     17.235935   22.008624   24.906744 H          1 MOL1         0.3769
      54    C16     16.226144   22.085631   21.810668 C.3        1 MOL1         0.1018
      55    H26     15.319782   22.612500   22.137054 H          1 MOL1         0.0783
      56    C17     16.786278   22.731857   20.510798 C.3        1 MOL1         0.1043
      57    H27     17.509313   22.032401   20.071949 H          1 MOL1         0.0783
      58    O14     17.460905   23.981253   20.804147 O.3        1 MOL1        -0.3740
      59    C18     15.700795   22.999490   19.440726 C.3        1 MOL1         0.0138
      60    H28     15.363518   22.034951   19.037712 H          1 MOL1         0.0794
      61    H29     16.155663   23.557915   18.611664 H          1 MOL1         0.0794
      62    O15     14.582476   23.720490   19.973607 O.3        1 MOL1        -0.5486
      63    H30     13.966912   23.905906   19.231114 H          1 MOL1         0.3769
      64    C19     23.542363   22.496481   20.538669 C.3        1 MOL1         0.2972
      65    H31     24.563987   22.617837   20.155854 H          1 MOL1         0.0751
      66    O16     23.373102   21.238338   21.218640 O.3        1 MOL1        -0.3740
      67    C20     23.181161   23.629609   21.535527 C.3        1 MOL1         0.1003
      68    H32     23.264907   24.580354   20.993197 H          1 MOL1         0.0783
      69    O17     24.083908   23.645283   22.653190 O.3        1 MOL1        -0.5519
      70    H33     24.125207   22.724063   23.016258 H          1 MOL1         0.3769
      71    C21     21.718061   23.488094   22.027432 C.3        1 MOL1         0.1053
      72    H34     21.655287   22.575770   22.631110 H          1 MOL1         0.0783
      73    O18     21.380362   24.622267   22.834177 O.3        1 MOL1        -0.5519
      74    H35     22.172729   24.776160   23.397241 H          1 MOL1         0.3769
      75    C22     20.737423   23.345974   20.830695 C.3        1 MOL1         0.1018
      76    H36     20.649270   24.314286   20.321422 H          1 MOL1         0.0783
      77    C23     21.217735   22.277240   19.813726 C.3        1 MOL1         0.1043
      78    H37     21.151140   21.291627   20.293665 H          1 MOL1         0.0783
      79    O19     22.593872   22.543023   19.450147 O.3        1 MOL1        -0.3740
      80    C24     20.359470   22.206845   18.525247 C.3        1 MOL1         0.0138
      81    H38     19.442847   21.645917   18.750204 H          1 MOL1         0.0794
      82    H39     20.910465   21.632403   17.768842 H          1 MOL1         0.0794
      83    O20     20.015846   23.499282   18.010681 O.3        1 MOL1        -0.5486
      84    H40     19.364204   23.895451   18.629439 H          1 MOL1         0.3769
      85    C25     25.162133   17.680283   22.147968 C.3        1 MOL1         0.2972
      86    H41     25.811360   16.825128   22.375429 H          1 MOL1         0.0751
      87    O21     23.775373   17.296415   22.065541 O.3        1 MOL1        -0.3740
      88    C26     25.292570   18.749298   23.257098 C.3        1 MOL1         0.1003
      89    H42     26.330883   19.105558   23.262119 H          1 MOL1         0.0783
      90    O22     24.972657   18.182631   24.538266 O.3        1 MOL1        -0.5519
      91    H43     24.330024   17.447504   24.378225 H          1 MOL1         0.3769
      92    C27     24.370159   19.949929   22.952598 C.3        1 MOL1         0.1053
      93    H44     23.337875   19.595871   23.039056 H          1 MOL1         0.0783
      94    O23     24.602567   20.994009   23.903379 O.3        1 MOL1        -0.5519
      95    H45     24.595660   20.546374   24.778555 H          1 MOL1         0.3769
      96    C28     24.567980   20.491351   21.515341 C.3        1 MOL1         0.1018
      97    H46     25.466486   21.122484   21.501365 H          1 MOL1         0.0783
      98    C29     24.675243   19.368222   20.442331 C.3        1 MOL1         0.1043
      99    H47     23.664923   18.971940   20.279200 H          1 MOL1         0.0783
     100    O24     25.535186   18.289888   20.895478 O.3        1 MOL1        -0.3740
     101    C30     25.194887   19.865631   19.072326 C.3        1 MOL1         0.0138
     102    H48     24.414534   20.481527   18.605225 H          1 MOL1         0.0794
     103    H49     25.355981   18.995644   18.421585 H          1 MOL1         0.0794
     104    O25     26.403681   20.624843   19.197020 O.3        1 MOL1        -0.5486
     105    H50     26.715430   20.840037   18.290884 H          1 MOL1         0.3769
     106    C31     21.353077   13.932605   21.582647 C.3        1 MOL1         0.2972
     107    H51     20.996320   12.905379   21.432919 H          1 MOL1         0.0751
     108    O26     20.260202   14.868844   21.629969 O.3        1 MOL1        -0.3740
     109    C32     22.113655   14.030304   22.929131 C.3        1 MOL1         0.1003
     110    H52     22.951779   13.322395   22.891861 H          1 MOL1         0.0783
     111    O27     21.243444   13.683225   24.018022 O.3        1 MOL1        -0.5519
     112    H53     20.322130   13.864422   23.711643 H          1 MOL1         0.3769
     113    C33     22.691145   15.450045   23.132487 C.3        1 MOL1         0.1053
     114    H54     21.848061   16.142082   23.246384 H          1 MOL1         0.0783
     115    O28     23.506469   15.479906   24.308424 O.3        1 MOL1        -0.5519
     116    H55     22.980126   15.010255   24.993152 H          1 MOL1         0.3769
     117    C34     23.514368   15.892399   21.900282 C.3        1 MOL1         0.1018
     118    H56     24.436486   15.297825   21.858844 H          1 MOL1         0.0783
     119    C35     22.715188   15.702233   20.583013 C.3        1 MOL1         0.1043
     120    H57     21.858275   16.387336   20.611417 H          1 MOL1         0.0783
     121    O29     22.236998   14.334049   20.511536 O.3        1 MOL1        -0.3740
     122    C36     23.505314   16.019439   19.286485 C.3        1 MOL1         0.0138
     123    H58     23.385555   17.085508   19.057171 H          1 MOL1         0.0794
     124    H59     23.051400   15.464187   18.454740 H          1 MOL1         0.0794
     125    O30     24.899357   15.706570   19.382073 O.3        1 MOL1        -0.5486
     126    H60     25.325972   16.450704   19.866833 H          1 MOL1         0.3769
     127    C1      18.486787   17.828391   24.163870 C.3        1 MOL1        -0.1684
     128    H1      17.901333   18.658581   24.573159 H          1 MOL1         0.0833
     129    H2      17.726080   17.120941   23.814018 H          1 MOL1         0.0833
     130    C2      19.300660   18.284407   22.924779 C.3        1 MOL1        -0.1684
     131    H3      19.492139   17.396488   22.311082 H          1 MOL1         0.0833
     132    H4      18.676346   18.945134   22.308437 H          1 MOL1         0.0833
     133    C3      20.670112   18.960222   23.184814 C.3        1 MOL1        -0.1684
     134    H5      21.146574   19.126198   22.209234 H          1 MOL1         0.0833
     135    H6      21.340036   18.272191   23.710334 H          1 MOL1         0.0833
     136    C4      20.633934   20.321060   23.923640 C.3        1 MOL1        -0.1760
     137    H7      21.659635   20.704408   23.976244 H          1 MOL1         0.0833
     138    H8      20.079222   21.037385   23.311715 H          1 MOL1         0.0833
     139    C5      20.058443   20.332457   25.358412 C.3        1 MOL1         0.1219
     140    H9      18.966860   20.260217   25.313899 H          1 MOL1         0.0790
     141    C6      20.608025   19.205749   26.270514 C.3        1 MOL1        -0.1760
     142    H10     21.567159   18.832368   25.891855 H          1 MOL1         0.0833
     143    H11     20.836330   19.636522   27.254475 H          1 MOL1         0.0833
     144    C7      19.623661   18.028753   26.505138 C.3        1 MOL1        -0.1684
     145    H12     18.685154   18.420221   26.920621 H          1 MOL1         0.0833
     146    H13     20.049353   17.387085   27.288257 H          1 MOL1         0.0833
     147    C8      19.306735   17.131926   25.279746 C.3        1 MOL1        -0.1684
     148    H14     18.712685   16.283646   25.646019 H          1 MOL1         0.0833
     149    H15     20.223691   16.684265   24.877876 H          1 MOL1         0.0833
     150    O1      20.379907   21.591057   25.937704 O.3        1 MOL1        -0.5508
     151    H16     19.929429   22.271795   25.385461 H          1 MOL1         0.3780
@<TRIPOS>BOND
    1     1     2    1
    2     1     3    1
    3     1     4    1
    4     4     5    1
    5     4     6    1
    6     6     7    1
    7     4     8    1
    8     8     9    1
    9     8    10    1
   10    10    11    1
   11     8    12    1
   12    12    13    1
   13    12    14    1
   14    14    15    1
   15     1    16    1
   16    14    16    1
   17    14    17    1
   18    17    18    1
   19    17    19    1
   20    17    20    1
   21    20    21    1
   22    22    23    1
   23    22    24    1
   24    22    25    1
   25    25    26    1
   26    25    27    1
   27    27    28    1
   28    25    29    1
   29    29    30    1
   30    29    31    1
   31    31    32    1
   32     3    33    1
   33    29    33    1
   34    33    34    1
   35    33    35    1
   36    35    36    1
   37    22    37    1
   38    35    37    1
   39    35    38    1
   40    38    39    1
   41    38    40    1
   42    38    41    1
   43    41    42    1
   44    43    44    1
   45    43    45    1
   46    43    46    1
   47    46    47    1
   48    46    48    1
   49    48    49    1
   50    46    50    1
   51    50    51    1
   52    50    52    1
   53    52    53    1
   54    24    54    1
   55    50    54    1
   56    54    55    1
   57    54    56    1
   58    56    57    1
   59    43    58    1
   60    56    58    1
   61    56    59    1
   62    59    60    1
   63    59    61    1
   64    59    62    1
   65    62    63    1
   66    64    65    1
   67    64    66    1
   68    64    67    1
   69    67    68    1
   70    67    69    1
   71    69    70    1
   72    67    71    1
   73    71    72    1
   74    71    73    1
   75    73    74    1
   76    45    75    1
   77    71    75    1
   78    75    76    1
   79    75    77    1
   80    77    78    1
   81    64    79    1
   82    77    79    1
   83    77    80    1
   84    80    81    1
   85    80    82    1
   86    80    83    1
   87    83    84    1
   88    85    86    1
   89    85    87    1
   90    85    88    1
   91    88    89    1
   92    88    90    1
   93    90    91    1
   94    88    92    1
   95    92    93    1
   96    92    94    1
   97    94    95    1
   98    66    96    1
   99    92    96    1
  100    96    97    1
  101    96    98    1
  102    98    99    1
  103    85   100    1
  104    98   100    1
  105    98   101    1
  106   101   102    1
  107   101   103    1
  108   101   104    1
  109   104   105    1
  110   106   107    1
  111    12   108    1
  112   106   108    1
  113   106   109    1
  114   109   110    1
  115   109   111    1
  116   111   112    1
  117   109   113    1
  118   113   114    1
  119   113   115    1
  120   115   116    1
  121    87   117    1
  122   113   117    1
  123   117   118    1
  124   117   119    1
  125   119   120    1
  126   106   121    1
  127   119   121    1
  128   119   122    1
  129   122   123    1
  130   122   124    1
  131   122   125    1
  132   125   126    1
  133   127   128    1
  134   127   129    1
  135   127   130    1
  136   130   131    1
  137   130   132    1
  138   130   133    1
  139   133   134    1
  140   133   135    1
  141   133   136    1
  142   136   137    1
  143   136   138    1
  144   136   139    1
  145   139   140    1
  146   139   141    1
  147   141   142    1
  148   141   143    1
  149   141   144    1
  150   144   145    1
  151   144   146    1
  152   127   147    1
  153   144   147    1
  154   147   148    1
  155   147   149    1
  156   139   150    1
  157   150   151    1
@<TRIPOS>SUBSTRUCTURE
       1 MOL1            1 RESIDUE      1      MOL     
       2 MOL1          151 RESIDUE      1      MOL     
@<SCITEGIC>MOL_PROPERTY
feprocess Rank
SciTegic.value.IntegerValue
1

@<SCITEGIC>MOL_PROPERTY
Conf_Id
SciTegic.value.IntegerValue
185

@<SCITEGIC>MOL_PROPERTY
Probability
SciTegic.value.DoubleValue
18.68

@<SCITEGIC>MOL_PROPERTY
G
SciTegic.value.DoubleValue
588.088

@<SCITEGIC>MOL_PROPERTY
E
SciTegic.value.DoubleValue
386.348

@<SCITEGIC>MOL_PROPERTY
-TS
SciTegic.value.DoubleValue
201.740

@<SCITEGIC>MOL_PROPERTY
U+W
SciTegic.value.DoubleValue
253.105

@<SCITEGIC>MOL_PROPERTY
U
SciTegic.value.DoubleValue
290.493

@<SCITEGIC>MOL_PROPERTY
W
SciTegic.value.DoubleValue
-37.387

@<SCITEGIC>MOL_PROPERTY
W(PB)
SciTegic.value.DoubleValue
-43.561

@<SCITEGIC>MOL_PROPERTY
W(SA)
SciTegic.value.DoubleValue
6.174

@<SCITEGIC>MOL_PROPERTY
Valence
SciTegic.value.DoubleValue
162.187

@<SCITEGIC>MOL_PROPERTY
Coulomb
SciTegic.value.DoubleValue
150.966

@<SCITEGIC>MOL_PROPERTY
VdW
SciTegic.value.DoubleValue
-22.660

@<SCITEGIC>MOL_PROPERTY
VdW6
SciTegic.value.DoubleValue
-182.419

@<SCITEGIC>MOL_PROPERTY
VdW12
SciTegic.value.DoubleValue
159.759

@<SCITEGIC>MOL_PROPERTY
Bond
SciTegic.value.DoubleValue
4.820

@<SCITEGIC>MOL_PROPERTY
Angle
SciTegic.value.DoubleValue
15.282

@<SCITEGIC>MOL_PROPERTY
Pdih
SciTegic.value.DoubleValue
142.084

@<SCITEGIC>MOL_PROPERTY
Idih
SciTegic.value.DoubleValue
0.000

@<SCITEGIC>MOL_PROPERTY
Tether
SciTegic.value.DoubleValue
0.000

@<TRIPOS>MOLECULE
CD_guest-s17_fast_vm2_rndm.mol2 : feprocess host+ligand conformer 2
         151         157           2
SMALL
USER_CHARGES
 
@<TRIPOS>ATOM
       1    C1      15.916460   14.919643   21.001752 C.3        1 MOL1         0.2972
       2    H1      14.846373   14.860395   20.764894 H          1 MOL1         0.0751
       3    O1      16.275328   16.204515   21.542625 O.3        1 MOL1        -0.3740
       4    C2      16.301714   13.846782   22.045905 C.3        1 MOL1         0.1003
       5    H2      16.059881   12.865739   21.616785 H          1 MOL1         0.0783
       6    O2      15.550537   14.041300   23.255975 O.3        1 MOL1        -0.5519
       7    H3      15.546467   15.013764   23.438682 H          1 MOL1         0.3769
       8    C3      17.820508   13.877924   22.351016 C.3        1 MOL1         0.1053
       9    H4      18.015775   14.775050   22.945151 H          1 MOL1         0.0783
      10    O3      18.167589   12.728483   23.130237 O.3        1 MOL1        -0.5519
      11    H5      17.501352   12.693992   23.851494 H          1 MOL1         0.3769
      12    C4      18.711326   13.937915   21.077450 C.3        1 MOL1         0.1018
      13    H6      18.816043   12.912411   20.700674 H          1 MOL1         0.0783
      14    C5      18.135872   14.859241   19.953128 C.3        1 MOL1         0.1043
      15    H7      18.339829   15.903576   20.224214 H          1 MOL1         0.0783
      16    O4      16.706252   14.671023   19.826862 O.3        1 MOL1        -0.3740
      17    C6      18.722122   14.614777   18.539153 C.3        1 MOL1         0.0138
      18    H8      19.701222   15.097493   18.461392 H          1 MOL1         0.0794
      19    H9      18.073323   15.113420   17.806569 H          1 MOL1         0.0794
      20    O5      18.832451   13.220659   18.224676 O.3        1 MOL1        -0.5486
      21    H10     19.171254   13.149282   17.305907 H          1 MOL1         0.3769
      22    C7      14.998786   20.155145   21.689282 C.3        1 MOL1         0.2972
      23    H11     14.395890   21.072621   21.701843 H          1 MOL1         0.0751
      24    O6      16.407762   20.461774   21.703015 O.3        1 MOL1        -0.3740
      25    C8      14.653206   19.297235   22.931359 C.3        1 MOL1         0.1003
      26    H12     13.578508   19.077221   22.890877 H          1 MOL1         0.0783
      27    O7      14.945085   20.024066   24.135661 O.3        1 MOL1        -0.5519
      28    H13     15.439465   20.833674   23.862163 H          1 MOL1         0.3769
      29    C9      15.417893   17.954975   22.912135 C.3        1 MOL1         0.1053
      30    H14     16.479603   18.181525   23.052042 H          1 MOL1         0.0783
      31    O8      14.959898   17.118664   23.980607 O.3        1 MOL1        -0.5519
      32    H15     14.956281   17.701109   24.772142 H          1 MOL1         0.3769
      33    C10     15.249742   17.216932   21.562183 C.3        1 MOL1         0.1018
      34    H16     14.241950   16.782480   21.529268 H          1 MOL1         0.0783
      35    C11     15.471874   18.154909   20.342075 C.3        1 MOL1         0.1043
      36    H17     16.542216   18.387526   20.296071 H          1 MOL1         0.0783
      37    O9      14.721117   19.386700   20.500308 O.3        1 MOL1        -0.3740
      38    C12     15.069566   17.527997   18.984943 C.3        1 MOL1         0.0138
      39    H18     15.814465   16.770424   18.711589 H          1 MOL1         0.0794
      40    H19     15.107381   18.307435   18.212169 H          1 MOL1         0.0794
      41    O10     13.764776   16.936818   19.029540 O.3        1 MOL1        -0.5486
      42    H20     13.559092   16.602115   18.129682 H          1 MOL1         0.3769
      43    C13     18.660155   23.961017   20.804102 C.3        1 MOL1         0.2972
      44    H21     18.876737   24.924079   20.324075 H          1 MOL1         0.0751
      45    O11     19.790456   23.507694   21.573937 O.3        1 MOL1        -0.3740
      46    C14     17.461751   24.115037   21.784419 C.3        1 MOL1         0.1003
      47    H22     16.635292   24.567020   21.220761 H          1 MOL1         0.0783
      48    O12     17.820461   24.979743   22.873049 O.3        1 MOL1        -0.5519
      49    H23     18.748814   24.746433   23.110384 H          1 MOL1         0.3769
      50    C15     16.970570   22.747983   22.331518 C.3        1 MOL1         0.1053
      51    H24     17.749199   22.335636   22.987141 H          1 MOL1         0.0783
      52    O13     15.760201   22.935493   23.072972 O.3        1 MOL1        -0.5519
      53    H25     15.931548   23.711132   23.652201 H          1 MOL1         0.3769
      54    C16     16.743873   21.756786   21.165950 C.3        1 MOL1         0.1018
      55    H26     15.941013   22.139728   20.521371 H          1 MOL1         0.0783
      56    C17     18.033534   21.640929   20.319642 C.3        1 MOL1         0.1043
      57    H27     18.852480   21.295364   20.961651 H          1 MOL1         0.0783
      58    O14     18.331942   22.961303   19.812620 O.3        1 MOL1        -0.3740
      59    C18     17.931227   20.663953   19.122746 C.3        1 MOL1         0.0138
      60    H28     18.137514   19.650116   19.487441 H          1 MOL1         0.0794
      61    H29     18.722927   20.908126   18.402284 H          1 MOL1         0.0794
      62    O15     16.649041   20.700776   18.481964 O.3        1 MOL1        -0.5486
      63    H30     15.983257   20.388182   19.137026 H          1 MOL1         0.3769
      64    C19     23.856250   22.974565   21.248417 C.3        1 MOL1         0.2972
      65    H31     24.939427   23.019069   21.076795 H          1 MOL1         0.0751
      66    O16     23.433447   21.662863   21.677839 O.3        1 MOL1        -0.3740
      67    C20     23.436985   23.999000   22.325834 C.3        1 MOL1         0.1003
      68    H32     23.697871   24.998001   21.952868 H          1 MOL1         0.0783
      69    O17     24.131647   23.754686   23.560407 O.3        1 MOL1        -0.5519
      70    H33     24.118960   22.777511   23.722135 H          1 MOL1         0.3769
      71    C21     21.907842   23.954637   22.548319 C.3        1 MOL1         0.1053
      72    H34     21.678067   22.996519   23.023243 H          1 MOL1         0.0783
      73    O18     21.528255   25.019158   23.426753 O.3        1 MOL1        -0.5519
      74    H35     22.174211   24.983963   24.166432 H          1 MOL1         0.3769
      75    C22     21.092168   24.040206   21.228472 C.3        1 MOL1         0.1018
      76    H36     21.024688   25.099138   20.948354 H          1 MOL1         0.0783
      77    C23     21.712225   23.213436   20.052324 C.3        1 MOL1         0.1043
      78    H37     21.436997   22.161003   20.186502 H          1 MOL1         0.0783
      79    O19     23.156577   23.323980   20.042175 O.3        1 MOL1        -0.3740
      80    C24     21.248454   23.643834   18.636647 C.3        1 MOL1         0.0138
      81    H38     20.248311   23.245558   18.439682 H          1 MOL1         0.0794
      82    H39     21.916576   23.177805   17.899942 H          1 MOL1         0.0794
      83    O20     21.252361   25.067395   18.468368 O.3        1 MOL1        -0.5486
      84    H40     21.008508   25.256910   17.536229 H          1 MOL1         0.3769
      85    C25     24.763566   17.766246   22.081354 C.3        1 MOL1         0.2972
      86    H41     25.357000   16.847552   22.177426 H          1 MOL1         0.0751
      87    O21     23.355093   17.464342   21.973709 O.3        1 MOL1        -0.3740
      88    C26     24.996334   18.658500   23.324422 C.3        1 MOL1         0.1003
      89    H42     26.068031   18.891781   23.370617 H          1 MOL1         0.0783
      90    O22     24.606741   17.960277   24.517402 O.3        1 MOL1        -0.5519
      91    H43     24.088201   17.174589   24.223877 H          1 MOL1         0.3769
      92    C27     24.219149   19.986396   23.200598 C.3        1 MOL1         0.1053
      93    H44     23.157596   19.741451   23.253193 H          1 MOL1         0.0783
      94    O23     24.561116   20.856441   24.283500 O.3        1 MOL1        -0.5519
      95    H45     24.526230   20.287314   25.084493 H          1 MOL1         0.3769
      96    C28     24.489283   20.692599   21.850849 C.3        1 MOL1         0.1018
      97    H46     25.480460   21.162025   21.905469 H          1 MOL1         0.0783
      98    C29     24.428467   19.724097   20.637026 C.3        1 MOL1         0.1043
      99    H47     23.376411   19.474525   20.467884 H          1 MOL1         0.0783
     100    O24     25.163430   18.502669   20.906035 O.3        1 MOL1        -0.3740
     101    C30     24.971109   20.343013   19.326333 C.3        1 MOL1         0.0138
     102    H48     24.263885   21.109778   18.983103 H          1 MOL1         0.0794
     103    H49     25.002886   19.563105   18.553820 H          1 MOL1         0.0794
     104    O25     26.269848   20.922766   19.502131 O.3        1 MOL1        -0.5486
     105    H50     26.571266   21.248312   18.626140 H          1 MOL1         0.3769
     106    C31     21.165040   13.993639   20.855977 C.3        1 MOL1         0.2972
     107    H51     20.973652   13.035123   20.356629 H          1 MOL1         0.0751
     108    O26     19.982077   14.464374   21.533129 O.3        1 MOL1        -0.3740
     109    C32     22.279509   13.815983   21.925252 C.3        1 MOL1         0.1003
     110    H52     23.142492   13.359245   21.423520 H          1 MOL1         0.0783
     111    O27     21.826505   12.944960   22.973036 O.3        1 MOL1        -0.5519
     112    H53     20.877513   13.167898   23.122773 H          1 MOL1         0.3769
     113    C33     22.741878   15.171794   22.521306 C.3        1 MOL1         0.1053
     114    H54     21.922119   15.582507   23.123831 H          1 MOL1         0.0783
     115    O28     23.889746   14.960924   23.350122 O.3        1 MOL1        -0.5519
     116    H55     23.663966   14.184586   23.909243 H          1 MOL1         0.3769
     117    C34     23.069187   16.176398   21.389837 C.3        1 MOL1         0.1018
     118    H56     23.930555   15.798658   20.822399 H          1 MOL1         0.0783
     119    C35     21.868942   16.304833   20.418925 C.3        1 MOL1         0.1043
     120    H57     20.996319   16.679044   20.967686 H          1 MOL1         0.0783
     121    O29     21.592841   14.985411   19.896417 O.3        1 MOL1        -0.3740
     122    C36     22.107990   17.257852   19.221838 C.3        1 MOL1         0.0138
     123    H58     21.879408   18.281388   19.543464 H          1 MOL1         0.0794
     124    H59     21.390794   17.010932   18.428256 H          1 MOL1         0.0794
     125    O30     23.446860   17.188532   18.713438 O.3        1 MOL1        -0.5486
     126    H60     24.048145   17.511740   19.423332 H          1 MOL1         0.3769
     127    C1      20.371512   17.900499   25.536930 C.3        1 MOL1        -0.1684
     128    H1      20.537461   17.275023   26.424438 H          1 MOL1         0.0833
     129    H2      21.251130   17.718942   24.908812 H          1 MOL1         0.0833
     130    C2      20.334853   19.373802   26.018399 C.3        1 MOL1        -0.1684
     131    H3      19.769045   19.403842   26.959347 H          1 MOL1         0.0833
     132    H4      21.354926   19.690989   26.274050 H          1 MOL1         0.0833
     133    C3      19.697483   20.413601   25.063681 C.3        1 MOL1        -0.1684
     134    H5      19.660210   21.371541   25.599621 H          1 MOL1         0.0833
     135    H6      18.647758   20.165338   24.869284 H          1 MOL1         0.0833
     136    C4      20.454854   20.659263   23.735712 C.3        1 MOL1        -0.1760
     137    H7      19.949655   21.485505   23.223658 H          1 MOL1         0.0833
     138    H8      21.463096   21.013876   23.977216 H          1 MOL1         0.0833
     139    C5      20.562343   19.475429   22.744699 C.3        1 MOL1         0.1219
     140    H9      21.315918   18.766233   23.100685 H          1 MOL1         0.0790
     141    C6      19.241479   18.709251   22.534513 C.3        1 MOL1        -0.1760
     142    H10     18.391646   19.340495   22.806493 H          1 MOL1         0.0833
     143    H11     19.120410   18.496031   21.464836 H          1 MOL1         0.0833
     144    C7      19.170102   17.358161   23.285299 C.3        1 MOL1        -0.1684
     145    H12     20.016917   16.730314   22.992078 H          1 MOL1         0.0833
     146    H13     18.280079   16.842939   22.922186 H          1 MOL1         0.0833
     147    C8      19.083377   17.404137   24.831141 C.3        1 MOL1        -0.1684
     148    H14     18.894875   16.376556   25.170502 H          1 MOL1         0.0833
     149    H15     18.205200   17.976870   25.155457 H          1 MOL1         0.0833
     150    O1      20.995566   19.991851   21.491504 O.3        1 MOL1        -0.5508
     151    H16     21.777127   20.556249   21.674890 H          1 MOL1         0.3780
@<TRIPOS>BOND
    1     1     2    1
    2     1     3    1
    3     1     4    1
    4     4     5    1
    5     4     6    1
    6     6     7    1
    7     4     8    1
    8     8     9    1
    9     8    10    1
   10    10    11    1
   11     8    12    1
   12    12    13    1
   13    12    14    1
   14    14    15    1
   15     1    16    1
   16    14    16    1
   17    14    17    1
   18    17    18    1
   19    17    19    1
   20    17    20    1
   21    20    21    1
   22    22    23    1
   23    22    24    1
   24    22    25    1
   25    25    26    1
   26    25    27    1
   27    27    28    1
   28    25    29    1
   29    29    30    1
   30    29    31    1
   31    31    32    1
   32     3    33    1
   33    29    33    1
   34    33    34    1
   35    33    35    1
   36    35    36    1
   37    22    37    1
   38    35    37    1
   39    35    38    1
   40    38    39    1
   41    38    40    1
   42    38    41    1
   43    41    42    1
   44    43    44    1
   45    43    45    1
   46    43    46    1
   47    46    47    1
   48    46    48    1
   49    48    49    1
   50    46    50    1
   51    50    51    1
   52    50    52    1
   53    52    53    1
   54    24    54    1
   55    50    54    1
   56    54    55    1
   57    54    56    1
   58    56    57    1
   59    43    58    1
   60    56    58    1
   61    56    59    1
   62    59    60    1
   63    59    61    1
   64    59    62    1
   65    62    63    1
   66    64    65    1
   67    64    66    1
   68    64    67    1
   69    67    68    1
   70    67    69    1
   71    69    70    1
   72    67    71    1
   73    71    72    1
   74    71    73    1
   75    73    74    1
   76    45    75    1
   77    71    75    1
   78    75    76    1
   79    75    77    1
   80    77    78    1
   81    64    79    1
   82    77    79    1
   83    77    80    1
   84    80    81    1
   85    80    82    1
   86    80    83    1
   87    83    84    1
   88    85    86    1
   89    85    87    1
   90    85    88    1
   91    88    89    1
   92    88    90    1
   93    90    91    1
   94    88    92    1
   95    92    93    1
   96    92    94    1
   97    94    95    1
   98    66    96    1
   99    92    96    1
  100    96    97    1
  101    96    98    1
  102    98    99    1
  103    85   100    1
  104    98   100    1
  105    98   101    1
  106   101   102    1
  107   101   103    1
  108   101   104    1
  109   104   105    1
  110   106   107    1
  111    12   108    1
  112   106   108    1
  113   106   109    1
  114   109   110    1
  115   109   111    1
  116   111   112    1
  117   109   113    1
  118   113   114    1
  119   113   115    1
  120   115   116    1
  121    87   117    1
  122   113   117    1
  123   117   118    1
  124   117   119    1
  125   119   120    1
  126   106   121    1
  127   119   121    1
  128   119   122    1
  129   122   123    1
  130   122   124    1
  131   122   125    1
  132   125   126    1
  133   127   128    1
  134   127   129    1
  135   127   130    1
  136   130   131    1
  137   130   132    1
  138   130   133    1
  139   133   134    1
  140   133   135    1
  141   133   136    1
  142   136   137    1
  143   136   138    1
  144   136   139    1
  145   139   140    1
  146   139   141    1
  147   141   142    1
  148   141   143    1
  149   141   144    1
  150   144   145    1
  151   144   146    1
  152   127   147    1
  153   144   147    1
  154   147   148    1
  155   147   149    1
  156   139   150    1
  157   150   151    1
@<TRIPOS>SUBSTRUCTURE
       1 MOL1            1 RESIDUE      1      MOL     
       2 MOL1          151 RESIDUE      1      MOL     
@<SCITEGIC>MOL_PROPERTY
feprocess Rank
SciTegic.value.IntegerValue
2

@<SCITEGIC>MOL_PROPERTY
Conf_Id
SciTegic.value.IntegerValue
888

@<SCITEGIC>MOL_PROPERTY
Probability
SciTegic.value.DoubleValue
15.25

@<SCITEGIC>MOL_PROPERTY
G
SciTegic.value.DoubleValue
588.208

@<SCITEGIC>MOL_PROPERTY
E
SciTegic.value.DoubleValue
386.749

@<SCITEGIC>MOL_PROPERTY
-TS
SciTegic.value.DoubleValue
201.459

@<SCITEGIC>MOL_PROPERTY
U+W
SciTegic.value.DoubleValue
253.507

@<SCITEGIC>MOL_PROPERTY
U
SciTegic.value.DoubleValue
288.177

@<SCITEGIC>MOL_PROPERTY
W
SciTegic.value.DoubleValue
-34.671

@<SCITEGIC>MOL_PROPERTY
W(PB)
SciTegic.value.DoubleValue
-40.793

@<SCITEGIC>MOL_PROPERTY
W(SA)
SciTegic.value.DoubleValue
6.123

@<SCITEGIC>MOL_PROPERTY
Valence
SciTegic.value.DoubleValue
161.290

@<SCITEGIC>MOL_PROPERTY
Coulomb
SciTegic.value.DoubleValue
154.728

@<SCITEGIC>MOL_PROPERTY
VdW
SciTegic.value.DoubleValue
-27.841

@<SCITEGIC>MOL_PROPERTY
VdW6
SciTegic.value.DoubleValue
-189.103

@<SCITEGIC>MOL_PROPERTY
VdW12
SciTegic.value.DoubleValue
161.262

@<SCITEGIC>MOL_PROPERTY
Bond
SciTegic.value.DoubleValue
4.956

@<SCITEGIC>MOL_PROPERTY
Angle
SciTegic.value.DoubleValue
16.349

@<SCITEGIC>MOL_PROPERTY
Pdih
SciTegic.value.DoubleValue
139.985

@<SCITEGIC>MOL_PROPERTY
Idih
SciTegic.value.DoubleValue
0.000

@<SCITEGIC>MOL_PROPERTY
Tether
SciTegic.value.DoubleValue
0.000

@<TRIPOS>MOLECULE
CD_guest-s17_fast_vm2_rndm.mol2 : feprocess host+ligand conformer 3
         151         157           2
SMALL
USER_CHARGES
 
@<TRIPOS>ATOM
       1    C1      15.941795   15.007316   21.620374 C.3        1 MOL1         0.2972
       2    H1      14.863321   14.810456   21.670336 H          1 MOL1         0.0751
       3    O1      16.218452   16.419130   21.739174 O.3        1 MOL1        -0.3740
       4    C2      16.662298   14.241588   22.759481 C.3        1 MOL1         0.1003
       5    H2      16.492237   13.170265   22.591450 H          1 MOL1         0.0783
       6    O2      16.139398   14.604750   24.045206 O.3        1 MOL1        -0.5519
       7    H3      16.369211   15.557396   24.186223 H          1 MOL1         0.3769
       8    C3      18.182535   14.499522   22.713945 C.3        1 MOL1         0.1053
       9    H4      18.340780   15.555733   22.951455 H          1 MOL1         0.0783
      10    O3      18.848760   13.677202   23.678514 O.3        1 MOL1        -0.5519
      11    H5      18.330705   13.785797   24.506178 H          1 MOL1         0.3769
      12    C4      18.777713   14.241195   21.313265 C.3        1 MOL1         0.1018
      13    H6      18.916423   13.158898   21.189801 H          1 MOL1         0.0783
      14    C5      17.904858   14.815228   20.161701 C.3        1 MOL1         0.1043
      15    H7      18.056343   15.901384   20.160526 H          1 MOL1         0.0783
      16    O4      16.494842   14.535470   20.373521 O.3        1 MOL1        -0.3740
      17    C6      18.297252   14.288318   18.759548 C.3        1 MOL1         0.0138
      18    H8      19.256244   14.738394   18.470578 H          1 MOL1         0.0794
      19    H9      17.547642   14.628749   18.032778 H          1 MOL1         0.0794
      20    O5      18.401253   12.859713   18.729763 O.3        1 MOL1        -0.5486
      21    H10     18.572894   12.592238   17.800541 H          1 MOL1         0.3769
      22    C7      14.812221   20.215863   20.779384 C.3        1 MOL1         0.2972
      23    H11     14.249007   21.084615   20.414807 H          1 MOL1         0.0751
      24    O6      16.118170   20.586858   21.264019 O.3        1 MOL1        -0.3740
      25    C8      14.053480   19.508116   21.926859 C.3        1 MOL1         0.1003
      26    H12     13.085176   19.180222   21.526903 H          1 MOL1         0.0783
      27    O7      13.830666   20.403250   23.028622 O.3        1 MOL1        -0.5519
      28    H13     14.693048   20.849258   23.228170 H          1 MOL1         0.3769
      29    C9      14.825228   18.252305   22.398834 C.3        1 MOL1         0.1053
      30    H14     15.749863   18.590874   22.880997 H          1 MOL1         0.0783
      31    O8      14.018967   17.543987   23.344461 O.3        1 MOL1        -0.5519
      32    H15     13.664410   18.231881   23.949476 H          1 MOL1         0.3769
      33    C10     15.215540   17.321118   21.218227 C.3        1 MOL1         0.1018
      34    H16     14.312967   16.787821   20.892998 H          1 MOL1         0.0783
      35    C11     15.818203   18.114581   20.015652 C.3        1 MOL1         0.1043
      36    H17     16.817650   18.467363   20.302647 H          1 MOL1         0.0783
      37    O9      14.977470   19.255056   19.719572 O.3        1 MOL1        -0.3740
      38    C12     15.972469   17.324928   18.688572 C.3        1 MOL1         0.0138
      39    H18     16.987277   16.918327   18.631579 H          1 MOL1         0.0794
      40    H19     15.881449   18.031681   17.852778 H          1 MOL1         0.0794
      41    O10     15.014150   16.272436   18.533989 O.3        1 MOL1        -0.5486
      42    H20     15.314548   15.527364   19.105767 H          1 MOL1         0.3769
      43    C13     18.639484   23.866508   21.568874 C.3        1 MOL1         0.2972
      44    H21     19.066216   24.876657   21.618870 H          1 MOL1         0.0751
      45    O11     19.667910   22.858779   21.550347 O.3        1 MOL1        -0.3740
      46    C14     17.736871   23.617531   22.801222 C.3        1 MOL1         0.1003
      47    H22     16.935107   24.367089   22.780924 H          1 MOL1         0.0783
      48    O12     18.489898   23.756350   24.017809 O.3        1 MOL1        -0.5519
      49    H23     19.404070   24.027058   23.759377 H          1 MOL1         0.3769
      50    C15     17.093860   22.215169   22.723975 C.3        1 MOL1         0.1053
      51    H24     17.898889   21.476371   22.804663 H          1 MOL1         0.0783
      52    O13     16.170565   22.049600   23.804768 O.3        1 MOL1        -0.5519
      53    H25     16.654568   22.376627   24.596011 H          1 MOL1         0.3769
      54    C16     16.376560   21.999961   21.370525 C.3        1 MOL1         0.1018
      55    H26     15.450629   22.590442   21.372419 H          1 MOL1         0.0783
      56    C17     17.265521   22.401870   20.159894 C.3        1 MOL1         0.1043
      57    H27     18.069223   21.659895   20.074520 H          1 MOL1         0.0783
      58    O14     17.848860   23.712955   20.371469 O.3        1 MOL1        -0.3740
      59    C18     16.507201   22.419820   18.810934 C.3        1 MOL1         0.0138
      60    H28     16.283191   21.384144   18.522105 H          1 MOL1         0.0794
      61    H29     17.170356   22.835708   18.040494 H          1 MOL1         0.0794
      62    O15     15.292666   23.177070   18.885578 O.3        1 MOL1        -0.5486
      63    H30     14.901614   23.201751   17.985112 H          1 MOL1         0.3769
      64    C19     23.852785   22.791493   21.222510 C.3        1 MOL1         0.2972
      65    H31     24.882994   23.022032   20.921637 H          1 MOL1         0.0751
      66    O16     23.801138   21.619733   22.056976 O.3        1 MOL1        -0.3740
      67    C20     23.260674   23.957454   22.059045 C.3        1 MOL1         0.1003
      68    H32     23.307881   24.866151   21.444904 H          1 MOL1         0.0783
      69    O17     24.028079   24.147789   23.257107 O.3        1 MOL1        -0.5519
      70    H33     24.168550   23.248187   23.633957 H          1 MOL1         0.3769
      71    C21     21.776810   23.692338   22.420511 C.3        1 MOL1         0.1053
      72    H34     21.738647   22.839549   23.110615 H          1 MOL1         0.0783
      73    O18     21.225326   24.849398   23.058589 O.3        1 MOL1        -0.5519
      74    H35     21.913050   25.141158   23.698434 H          1 MOL1         0.3769
      75    C22     20.966365   23.327506   21.151932 C.3        1 MOL1         0.1018
      76    H36     20.894709   24.213928   20.507505 H          1 MOL1         0.0783
      77    C23     21.644116   22.185888   20.354604 C.3        1 MOL1         0.1043
      78    H37     21.649157   21.278633   20.970597 H          1 MOL1         0.0783
      79    O19     23.005531   22.580924   20.067452 O.3        1 MOL1        -0.3740
      80    C24     20.923945   21.826514   19.029243 C.3        1 MOL1         0.0138
      81    H38     20.139933   21.091598   19.253292 H          1 MOL1         0.0794
      82    H39     21.641802   21.334265   18.359739 H          1 MOL1         0.0794
      83    O20     20.339391   22.962999   18.379836 O.3        1 MOL1        -0.5486
      84    H40     19.619728   23.296299   18.962852 H          1 MOL1         0.3769
      85    C25     25.040942   17.714112   21.866410 C.3        1 MOL1         0.2972
      86    H41     25.567349   16.751330   21.828476 H          1 MOL1         0.0751
      87    O21     23.612204   17.537966   21.772482 O.3        1 MOL1        -0.3740
      88    C26     25.390989   18.434025   23.184695 C.3        1 MOL1         0.1003
      89    H42     26.473418   18.617028   23.184368 H          1 MOL1         0.0783
      90    O22     25.047832   17.614539   24.314079 O.3        1 MOL1        -0.5519
      91    H43     24.505826   16.863062   23.969923 H          1 MOL1         0.3769
      92    C27     24.674807   19.797006   23.261177 C.3        1 MOL1         0.1053
      93    H44     23.602102   19.594572   23.356095 H          1 MOL1         0.0783
      94    O23     25.132273   20.500999   24.420275 O.3        1 MOL1        -0.5519
      95    H45     25.084574   19.842414   25.147765 H          1 MOL1         0.3769
      96    C28     24.883140   20.663467   21.989364 C.3        1 MOL1         0.1018
      97    H46     25.857095   21.163050   22.068237 H          1 MOL1         0.0783
      98    C29     24.799651   19.845110   20.656597 C.3        1 MOL1         0.1043
      99    H47     23.738739   19.682344   20.434415 H          1 MOL1         0.0783
     100    O24     25.459218   18.557874   20.779968 O.3        1 MOL1        -0.3740
     101    C30     25.445936   20.531970   19.424846 C.3        1 MOL1         0.0138
     102    H48     24.784377   21.318807   19.048136 H          1 MOL1         0.0794
     103    H49     25.532318   19.789005   18.620336 H          1 MOL1         0.0794
     104    O25     26.734780   21.081143   19.724704 O.3        1 MOL1        -0.5486
     105    H50     27.117819   21.418241   18.885490 H          1 MOL1         0.3769
     106    C31     21.121774   14.318590   20.623109 C.3        1 MOL1         0.2972
     107    H51     20.801171   13.397398   20.119474 H          1 MOL1         0.0751
     108    O26     20.028125   14.956834   21.302562 O.3        1 MOL1        -0.3740
     109    C32     22.212933   14.011549   21.686569 C.3        1 MOL1         0.1003
     110    H52     23.031813   13.492329   21.171963 H          1 MOL1         0.0783
     111    O27     21.695218   13.160690   22.722966 O.3        1 MOL1        -0.5519
     112    H53     20.807592   13.515142   22.983410 H          1 MOL1         0.3769
     113    C33     22.788679   15.314000   22.300216 C.3        1 MOL1         0.1053
     114    H54     22.001455   15.798500   22.892075 H          1 MOL1         0.0783
     115    O28     23.903188   14.996415   23.140988 O.3        1 MOL1        -0.5519
     116    H55     23.606856   14.227793   23.677922 H          1 MOL1         0.3769
     117    C34     23.219728   16.286513   21.176837 C.3        1 MOL1         0.1018
     118    H56     24.048372   15.831101   20.617630 H          1 MOL1         0.0783
     119    C35     22.055563   16.540664   20.187888 C.3        1 MOL1         0.1043
     120    H57     21.219737   17.000654   20.730036 H          1 MOL1         0.0783
     121    O29     21.645814   15.258201   19.656125 O.3        1 MOL1        -0.3740
     122    C36     22.411908   17.479121   19.006686 C.3        1 MOL1         0.0138
     123    H58     22.253370   18.515636   19.329378 H          1 MOL1         0.0794
     124    H59     21.707680   17.291526   18.185291 H          1 MOL1         0.0794
     125    O30     23.760023   17.317630   18.546576 O.3        1 MOL1        -0.5486
     126    H60     24.357496   17.624363   19.267479 H          1 MOL1         0.3769
     127    C1      21.095888   19.816940   25.081149 C.3        1 MOL1        -0.1684
     128    H1      21.815226   20.587374   25.391107 H          1 MOL1         0.0833
     129    H2      20.250848   19.940563   25.767933 H          1 MOL1         0.0833
     130    C2      21.760153   18.430216   25.284090 C.3        1 MOL1        -0.1684
     131    H3      22.219211   18.066608   24.357359 H          1 MOL1         0.0833
     132    H4      22.596054   18.561294   25.984538 H          1 MOL1         0.0833
     133    C3      20.826106   17.349664   25.884300 C.3        1 MOL1        -0.1684
     134    H5      20.392498   17.718230   26.823710 H          1 MOL1         0.0833
     135    H6      21.448099   16.487935   26.161880 H          1 MOL1         0.0833
     136    C4      19.693566   16.834392   24.959921 C.3        1 MOL1        -0.1760
     137    H7      20.119384   16.443249   24.030173 H          1 MOL1         0.0833
     138    H8      19.241076   15.967996   25.459789 H          1 MOL1         0.0833
     139    C5      18.576158   17.866212   24.658774 C.3        1 MOL1         0.1219
     140    H9      18.609488   18.656375   25.417833 H          1 MOL1         0.0790
     141    C6      18.657044   18.508350   23.252647 C.3        1 MOL1        -0.1760
     142    H10     18.315711   17.775232   22.513087 H          1 MOL1         0.0833
     143    H11     17.938828   19.333224   23.209391 H          1 MOL1         0.0833
     144    C7      20.041781   19.019166   22.784100 C.3        1 MOL1        -0.1684
     145    H12     19.921144   19.398812   21.760953 H          1 MOL1         0.0833
     146    H13     20.742693   18.182513   22.693673 H          1 MOL1         0.0833
     147    C8      20.669673   20.153975   23.629445 C.3        1 MOL1        -0.1684
     148    H14     19.992257   21.017043   23.650568 H          1 MOL1         0.0833
     149    H15     21.563883   20.494407   23.097228 H          1 MOL1         0.0833
     150    O1      17.313009   17.214151   24.759132 O.3        1 MOL1        -0.5508
     151    H16     16.630238   17.908664   24.671681 H          1 MOL1         0.3780
@<TRIPOS>BOND
    1     1     2    1
    2     1     3    1
    3     1     4    1
    4     4     5    1
    5     4     6    1
    6     6     7    1
    7     4     8    1
    8     8     9    1
    9     8    10    1
   10    10    11    1
   11     8    12    1
   12    12    13    1
   13    12    14    1
   14    14    15    1
   15     1    16    1
   16    14    16    1
   17    14    17    1
   18    17    18    1
   19    17    19    1
   20    17    20    1
   21    20    21    1
   22    22    23    1
   23    22    24    1
   24    22    25    1
   25    25    26    1
   26    25    27    1
   27    27    28    1
   28    25    29    1
   29    29    30    1
   30    29    31    1
   31    31    32    1
   32     3    33    1
   33    29    33    1
   34    33    34    1
   35    33    35    1
   36    35    36    1
   37    22    37    1
   38    35    37    1
   39    35    38    1
   40    38    39    1
   41    38    40    1
   42    38    41    1
   43    41    42    1
   44    43    44    1
   45    43    45    1
   46    43    46    1
   47    46    47    1
   48    46    48    1
   49    48    49    1
   50    46    50    1
   51    50    51    1
   52    50    52    1
   53    52    53    1
   54    24    54    1
   55    50    54    1
   56    54    55    1
   57    54    56    1
   58    56    57    1
   59    43    58    1
   60    56    58    1
   61    56    59    1
   62    59    60    1
   63    59    61    1
   64    59    62    1
   65    62    63    1
   66    64    65    1
   67    64    66    1
   68    64    67    1
   69    67    68    1
   70    67    69    1
   71    69    70    1
   72    67    71    1
   73    71    72    1
   74    71    73    1
   75    73    74    1
   76    45    75    1
   77    71    75    1
   78    75    76    1
   79    75    77    1
   80    77    78    1
   81    64    79    1
   82    77    79    1
   83    77    80    1
   84    80    81    1
   85    80    82    1
   86    80    83    1
   87    83    84    1
   88    85    86    1
   89    85    87    1
   90    85    88    1
   91    88    89    1
   92    88    90    1
   93    90    91    1
   94    88    92    1
   95    92    93    1
   96    92    94    1
   97    94    95    1
   98    66    96    1
   99    92    96    1
  100    96    97    1
  101    96    98    1
  102    98    99    1
  103    85   100    1
  104    98   100    1
  105    98   101    1
  106   101   102    1
  107   101   103    1
  108   101   104    1
  109   104   105    1
  110   106   107    1
  111    12   108    1
  112   106   108    1
  113   106   109    1
  114   109   110    1
  115   109   111    1
  116   111   112    1
  117   109   113    1
  118   113   114    1
  119   113   115    1
  120   115   116    1
  121    87   117    1
  122   113   117    1
  123   117   118    1
  124   117   119    1
  125   119   120    1
  126   106   121    1
  127   119   121    1
  128   119   122    1
  129   122   123    1
  130   122   124    1
  131   122   125    1
  132   125   126    1
  133   127   128    1
  134   127   129    1
  135   127   130    1
  136   130   131    1
  137   130   132    1
  138   130   133    1
  139   133   134    1
  140   133   135    1
  141   133   136    1
  142   136   137    1
  143   136   138    1
  144   136   139    1
  145   139   140    1
  146   139   141    1
  147   141   142    1
  148   141   143    1
  149   141   144    1
  150   144   145    1
  151   144   146    1
  152   127   147    1
  153   144   147    1
  154   147   148    1
  155   147   149    1
  156   139   150    1
  157   150   151    1
@<TRIPOS>SUBSTRUCTURE
       1 MOL1            1 RESIDUE      1      MOL     
       2 MOL1          151 RESIDUE      1      MOL     
@<SCITEGIC>MOL_PROPERTY
feprocess Rank
SciTegic.value.IntegerValue
3

@<SCITEGIC>MOL_PROPERTY
Conf_Id
SciTegic.value.IntegerValue
851

@<SCITEGIC>MOL_PROPERTY
Probability
SciTegic.value.DoubleValue
4.86

@<SCITEGIC>MOL_PROPERTY
G
SciTegic.value.DoubleValue
588.890

@<SCITEGIC>MOL_PROPERTY
E
SciTegic.value.DoubleValue
386.387

@<SCITEGIC>MOL_PROPERTY
-TS
SciTegic.value.DoubleValue
202.503

@<SCITEGIC>MOL_PROPERTY
U+W
SciTegic.value.DoubleValue
253.145

@<SCITEGIC>MOL_PROPERTY
U
SciTegic.value.DoubleValue
289.317

@<SCITEGIC>MOL_PROPERTY
W
SciTegic.value.DoubleValue
-36.172

@<SCITEGIC>MOL_PROPERTY
W(PB)
SciTegic.value.DoubleValue
-42.193

@<SCITEGIC>MOL_PROPERTY
W(SA)
SciTegic.value.DoubleValue
6.021

@<SCITEGIC>MOL_PROPERTY
Valence
SciTegic.value.DoubleValue
161.591

@<SCITEGIC>MOL_PROPERTY
Coulomb
SciTegic.value.DoubleValue
153.747

@<SCITEGIC>MOL_PROPERTY
VdW
SciTegic.value.DoubleValue
-26.022

@<SCITEGIC>MOL_PROPERTY
VdW6
SciTegic.value.DoubleValue
-188.311

@<SCITEGIC>MOL_PROPERTY
VdW12
SciTegic.value.DoubleValue
162.289

@<SCITEGIC>MOL_PROPERTY
Bond
SciTegic.value.DoubleValue
4.952

@<SCITEGIC>MOL_PROPERTY
Angle
SciTegic.value.DoubleValue
16.691

@<SCITEGIC>MOL_PROPERTY
Pdih
SciTegic.value.DoubleValue
139.948

@<SCITEGIC>MOL_PROPERTY
Idih
SciTegic.value.DoubleValue
0.000

@<SCITEGIC>MOL_PROPERTY
Tether
SciTegic.value.DoubleValue
0.000

@<TRIPOS>MOLECULE
CD_guest-s17_fast_vm2_rndm.mol2 : feprocess host+ligand conformer 4
         151         157           2
SMALL
USER_CHARGES
 
@<TRIPOS>ATOM
       1    C1      16.022240   15.145297   21.041389 C.3        1 MOL1         0.2972
       2    H1      15.033185   14.822505   20.691563 H          1 MOL1         0.0751
       3    O1      15.948021   16.428992   21.691407 O.3        1 MOL1        -0.3740
       4    C2      16.571548   14.141875   22.093670 C.3        1 MOL1         0.1003
       5    H2      16.570676   13.145860   21.632121 H          1 MOL1         0.0783
       6    O2      15.726426   14.129202   23.254308 O.3        1 MOL1        -0.5519
       7    H3      15.487059   15.069893   23.426890 H          1 MOL1         0.3769
       8    C3      18.029679   14.479502   22.502527 C.3        1 MOL1         0.1053
       9    H4      18.026526   15.432701   23.047490 H          1 MOL1         0.0783
      10    O3      18.544450   13.441103   23.342990 O.3        1 MOL1        -0.5519
      11    H5      17.825731   13.254369   23.987676 H          1 MOL1         0.3769
      12    C4      18.913446   14.648062   21.244414 C.3        1 MOL1         0.1018
      13    H6      18.986084   13.682464   20.725906 H          1 MOL1         0.0783
      14    C5      18.286748   15.679872   20.276345 C.3        1 MOL1         0.1043
      15    H7      18.217082   16.648289   20.785316 H          1 MOL1         0.0783
      16    O4      16.957787   15.221225   19.940011 O.3        1 MOL1        -0.3740
      17    C6      19.095098   15.896756   18.971488 C.3        1 MOL1         0.0138
      18    H8      19.863256   16.656458   19.164836 H          1 MOL1         0.0794
      19    H9      18.424501   16.308142   18.205485 H          1 MOL1         0.0794
      20    O5      19.718197   14.697961   18.491966 O.3        1 MOL1        -0.5486
      21    H10     20.399842   14.435833   19.152979 H          1 MOL1         0.3769
      22    C7      14.579826   20.235465   21.183763 C.3        1 MOL1         0.2972
      23    H11     14.053790   21.183952   21.014550 H          1 MOL1         0.0751
      24    O6      15.984250   20.445617   21.442327 O.3        1 MOL1        -0.3740
      25    C8      13.937702   19.500341   22.378861 C.3        1 MOL1         0.1003
      26    H12     12.894449   19.283278   22.114872 H          1 MOL1         0.0783
      27    O7      13.971991   20.327054   23.553389 O.3        1 MOL1        -0.5519
      28    H13     14.680708   21.002292   23.409182 H          1 MOL1         0.3769
      29    C9      14.654827   18.160679   22.640432 C.3        1 MOL1         0.1053
      30    H14     15.648795   18.407029   23.021255 H          1 MOL1         0.0783
      31    O8      13.939219   17.424639   23.637560 O.3        1 MOL1        -0.5519
      32    H15     13.760502   18.074421   24.352775 H          1 MOL1         0.3769
      33    C10     14.834818   17.293935   21.364160 C.3        1 MOL1         0.1018
      34    H16     13.912365   16.719072   21.211908 H          1 MOL1         0.0783
      35    C11     15.178652   18.119071   20.079652 C.3        1 MOL1         0.1043
      36    H17     16.254417   18.327227   20.102195 H          1 MOL1         0.0783
      37    O9      14.456846   19.378157   20.036471 O.3        1 MOL1        -0.3740
      38    C12     14.862190   17.399491   18.743664 C.3        1 MOL1         0.0138
      39    H18     15.611812   16.624675   18.554675 H          1 MOL1         0.0794
      40    H19     14.955486   18.128824   17.927569 H          1 MOL1         0.0794
      41    O10     13.550897   16.821964   18.737436 O.3        1 MOL1        -0.5486
      42    H20     13.395352   16.445851   17.843683 H          1 MOL1         0.3769
      43    C13     18.694570   23.661097   20.899686 C.3        1 MOL1         0.2972
      44    H21     19.071068   24.618801   20.517239 H          1 MOL1         0.0751
      45    O11     19.714058   22.950276   21.623797 O.3        1 MOL1        -0.3740
      46    C14     17.504037   23.900011   21.869906 C.3        1 MOL1         0.1003
      47    H22     16.769775   24.518095   21.337164 H          1 MOL1         0.0783
      48    O12     17.945757   24.598702   23.045962 O.3        1 MOL1        -0.5519
      49    H23     18.793959   24.177336   23.332938 H          1 MOL1         0.3769
      50    C15     16.805999   22.573968   22.269165 C.3        1 MOL1         0.1053
      51    H24     17.491318   22.005458   22.911276 H          1 MOL1         0.0783
      52    O13     15.599188   22.864210   22.982592 O.3        1 MOL1        -0.5519
      53    H25     15.849065   23.549588   23.641620 H          1 MOL1         0.3769
      54    C16     16.491833   21.725195   21.013971 C.3        1 MOL1         0.1018
      55    H26     15.759070   22.265306   20.399392 H          1 MOL1         0.0783
      56    C17     17.771852   21.512956   20.167878 C.3        1 MOL1         0.1043
      57    H27     18.519887   20.987206   20.775909 H          1 MOL1         0.0783
      58    O14     18.267273   22.821980   19.802974 O.3        1 MOL1        -0.3740
      59    C18     17.567436   20.690226   18.870258 C.3        1 MOL1         0.0138
      60    H28     17.669368   19.625817   19.113616 H          1 MOL1         0.0794
      61    H29     18.379634   20.933233   18.172330 H          1 MOL1         0.0794
      62    O15     16.298691   20.925569   18.247121 O.3        1 MOL1        -0.5486
      63    H30     15.610910   20.503800   18.813294 H          1 MOL1         0.3769
      64    C19     23.817825   22.825001   22.008573 C.3        1 MOL1         0.2972
      65    H31     24.893845   23.021086   22.101312 H          1 MOL1         0.0751
      66    O16     23.546414   21.408591   21.956712 O.3        1 MOL1        -0.3740
      67    C20     23.073136   23.421887   23.227512 C.3        1 MOL1         0.1003
      68    H32     23.234901   24.507403   23.224663 H          1 MOL1         0.0783
      69    O17     23.606153   22.864779   24.437584 O.3        1 MOL1        -0.5519
      70    H33     23.734754   21.905533   24.267269 H          1 MOL1         0.3769
      71    C21     21.552067   23.161758   23.110957 C.3        1 MOL1         0.1053
      72    H34     21.397697   22.083100   23.187675 H          1 MOL1         0.0783
      73    O18     20.837100   23.813921   24.166226 O.3        1 MOL1        -0.5519
      74    H35     21.033902   23.275908   24.972200 H          1 MOL1         0.3769
      75    C22     20.988846   23.615771   21.744518 C.3        1 MOL1         0.1018
      76    H36     20.879962   24.708342   21.761636 H          1 MOL1         0.0783
      77    C23     21.881956   23.175385   20.546436 C.3        1 MOL1         0.1043
      78    H37     21.731428   22.097930   20.407262 H          1 MOL1         0.0783
      79    O19     23.283297   23.438817   20.818208 O.3        1 MOL1        -0.3740
      80    C24     21.545730   23.879363   19.211420 C.3        1 MOL1         0.0138
      81    H38     20.552947   23.561971   18.870203 H          1 MOL1         0.0794
      82    H39     22.265142   23.553212   18.448338 H          1 MOL1         0.0794
      83    O20     21.588866   25.301966   19.352422 O.3        1 MOL1        -0.5486
      84    H40     22.497285   25.523740   19.655174 H          1 MOL1         0.3769
      85    C25     25.064586   17.732168   20.792351 C.3        1 MOL1         0.2972
      86    H41     25.631039   16.885779   20.382861 H          1 MOL1         0.0751
      87    O21     23.758645   17.331576   21.252421 O.3        1 MOL1        -0.3740
      88    C26     25.819573   18.399844   21.969244 C.3        1 MOL1         0.1003
      89    H42     26.766077   18.788701   21.571718 H          1 MOL1         0.0783
      90    O22     26.103167   17.456932   23.014426 O.3        1 MOL1        -0.5519
      91    H43     25.245593   17.030312   23.268991 H          1 MOL1         0.3769
      92    C27     25.006179   19.596128   22.521461 C.3        1 MOL1         0.1053
      93    H44     24.096828   19.195567   22.986749 H          1 MOL1         0.0783
      94    O23     25.782962   20.285679   23.505422 O.3        1 MOL1        -0.5519
      95    H45     26.160210   19.580854   24.076769 H          1 MOL1         0.3769
      96    C28     24.585690   20.578945   21.395197 C.3        1 MOL1         0.1018
      97    H46     25.469518   21.163534   21.108757 H          1 MOL1         0.0783
      98    C29     24.016460   19.849880   20.138392 C.3        1 MOL1         0.1043
      99    H47     23.022490   19.457985   20.388047 H          1 MOL1         0.0783
     100    O24     24.885579   18.746262   19.782159 O.3        1 MOL1        -0.3740
     101    C30     23.844294   20.732250   18.873149 C.3        1 MOL1         0.0138
     102    H48     22.817474   21.113319   18.845059 H          1 MOL1         0.0794
     103    H49     23.959233   20.094064   17.986729 H          1 MOL1         0.0794
     104    O25     24.768256   21.824323   18.805836 O.3        1 MOL1        -0.5486
     105    H50     24.459609   22.501406   19.451995 H          1 MOL1         0.3769
     106    C31     21.223948   14.111570   21.758131 C.3        1 MOL1         0.2972
     107    H51     20.776951   13.115897   21.877000 H          1 MOL1         0.0751
     108    O26     20.210569   15.130052   21.642024 O.3        1 MOL1        -0.3740
     109    C32     22.114929   14.428307   22.983568 C.3        1 MOL1         0.1003
     110    H52     22.890120   13.652662   23.033611 H          1 MOL1         0.0783
     111    O27     21.339467   14.403424   24.193304 O.3        1 MOL1        -0.5519
     112    H53     20.400501   14.245637   23.927930 H          1 MOL1         0.3769
     113    C33     22.814947   15.796355   22.824061 C.3        1 MOL1         0.1053
     114    H54     22.045694   16.572652   22.875425 H          1 MOL1         0.0783
     115    O28     23.746752   15.978024   23.894131 O.3        1 MOL1        -0.5519
     116    H55     23.248505   15.721432   24.702275 H          1 MOL1         0.3769
     117    C34     23.532753   15.924352   21.457802 C.3        1 MOL1         0.1018
     118    H56     24.470251   15.353737   21.495316 H          1 MOL1         0.0783
     119    C35     22.650534   15.441123   20.272168 C.3        1 MOL1         0.1043
     120    H57     21.859806   16.186830   20.123276 H          1 MOL1         0.0783
     121    O29     22.040211   14.159228   20.569283 O.3        1 MOL1        -0.3740
     122    C36     23.423220   15.319407   18.936963 C.3        1 MOL1         0.0138
     123    H58     23.667715   16.329969   18.582525 H          1 MOL1         0.0794
     124    H59     22.761965   14.862895   18.188143 H          1 MOL1         0.0794
     125    O30     24.624342   14.550484   19.077398 O.3        1 MOL1        -0.5486
     126    H60     25.021355   14.452542   18.184504 H          1 MOL1         0.3769
     127    C1      18.449996   18.847273   23.052673 C.3        1 MOL1        -0.1684
     128    H1      17.724492   18.555765   22.284453 H          1 MOL1         0.0833
     129    H2      18.455409   19.940779   23.023880 H          1 MOL1         0.0833
     130    C2      19.827630   18.289807   22.629604 C.3        1 MOL1        -0.1684
     131    H3      20.015447   17.325629   23.114335 H          1 MOL1         0.0833
     132    H4      19.791254   18.075213   21.554611 H          1 MOL1         0.0833
     133    C3      21.008964   19.264583   22.845407 C.3        1 MOL1        -0.1684
     134    H5      20.795495   20.203184   22.319885 H          1 MOL1         0.0833
     135    H6      21.883925   18.842043   22.340443 H          1 MOL1         0.0833
     136    C4      21.408953   19.556077   24.316534 C.3        1 MOL1        -0.1760
     137    H7      21.650970   18.620043   24.834219 H          1 MOL1         0.0833
     138    H8      22.350053   20.118958   24.287235 H          1 MOL1         0.0833
     139    C5      20.366129   20.378060   25.118357 C.3        1 MOL1         0.1219
     140    H9      19.696760   20.889984   24.417668 H          1 MOL1         0.0790
     141    C6      19.519118   19.546712   26.109991 C.3        1 MOL1        -0.1760
     142    H10     20.137192   19.310930   26.985982 H          1 MOL1         0.0833
     143    H11     18.700269   20.178053   26.478341 H          1 MOL1         0.0833
     144    C7      18.929406   18.214235   25.582200 C.3        1 MOL1        -0.1684
     145    H12     18.407790   17.733057   26.420347 H          1 MOL1         0.0833
     146    H13     19.731845   17.515529   25.318697 H          1 MOL1         0.0833
     147    C8      17.914964   18.341503   24.419028 C.3        1 MOL1        -0.1684
     148    H14     17.085879   18.987704   24.737377 H          1 MOL1         0.0833
     149    H15     17.473015   17.349158   24.260655 H          1 MOL1         0.0833
     150    O1      21.047529   21.377017   25.868820 O.3        1 MOL1        -0.5508
     151    H16     21.652740   20.903276   26.472737 H          1 MOL1         0.3780
@<TRIPOS>BOND
    1     1     2    1
    2     1     3    1
    3     1     4    1
    4     4     5    1
    5     4     6    1
    6     6     7    1
    7     4     8    1
    8     8     9    1
    9     8    10    1
   10    10    11    1
   11     8    12    1
   12    12    13    1
   13    12    14    1
   14    14    15    1
   15     1    16    1
   16    14    16    1
   17    14    17    1
   18    17    18    1
   19    17    19    1
   20    17    20    1
   21    20    21    1
   22    22    23    1
   23    22    24    1
   24    22    25    1
   25    25    26    1
   26    25    27    1
   27    27    28    1
   28    25    29    1
   29    29    30    1
   30    29    31    1
   31    31    32    1
   32     3    33    1
   33    29    33    1
   34    33    34    1
   35    33    35    1
   36    35    36    1
   37    22    37    1
   38    35    37    1
   39    35    38    1
   40    38    39    1
   41    38    40    1
   42    38    41    1
   43    41    42    1
   44    43    44    1
   45    43    45    1
   46    43    46    1
   47    46    47    1
   48    46    48    1
   49    48    49    1
   50    46    50    1
   51    50    51    1
   52    50    52    1
   53    52    53    1
   54    24    54    1
   55    50    54    1
   56    54    55    1
   57    54    56    1
   58    56    57    1
   59    43    58    1
   60    56    58    1
   61    56    59    1
   62    59    60    1
   63    59    61    1
   64    59    62    1
   65    62    63    1
   66    64    65    1
   67    64    66    1
   68    64    67    1
   69    67    68    1
   70    67    69    1
   71    69    70    1
   72    67    71    1
   73    71    72    1
   74    71    73    1
   75    73    74    1
   76    45    75    1
   77    71    75    1
   78    75    76    1
   79    75    77    1
   80    77    78    1
   81    64    79    1
   82    77    79    1
   83    77    80    1
   84    80    81    1
   85    80    82    1
   86    80    83    1
   87    83    84    1
   88    85    86    1
   89    85    87    1
   90    85    88    1
   91    88    89    1
   92    88    90    1
   93    90    91    1
   94    88    92    1
   95    92    93    1
   96    92    94    1
   97    94    95    1
   98    66    96    1
   99    92    96    1
  100    96    97    1
  101    96    98    1
  102    98    99    1
  103    85   100    1
  104    98   100    1
  105    98   101    1
  106   101   102    1
  107   101   103    1
  108   101   104    1
  109   104   105    1
  110   106   107    1
  111    12   108    1
  112   106   108    1
  113   106   109    1
  114   109   110    1
  115   109   111    1
  116   111   112    1
  117   109   113    1
  118   113   114    1
  119   113   115    1
  120   115   116    1
  121    87   117    1
  122   113   117    1
  123   117   118    1
  124   117   119    1
  125   119   120    1
  126   106   121    1
  127   119   121    1
  128   119   122    1
  129   122   123    1
  130   122   124    1
  131   122   125    1
  132   125   126    1
  133   127   128    1
  134   127   129    1
  135   127   130    1
  136   130   131    1
  137   130   132    1
  138   130   133    1
  139   133   134    1
  140   133   135    1
  141   133   136    1
  142   136   137    1
  143   136   138    1
  144   136   139    1
  145   139   140    1
  146   139   141    1
  147   141   142    1
  148   141   143    1
  149   141   144    1
  150   144   145    1
  151   144   146    1
  152   127   147    1
  153   144   147    1
  154   147   148    1
  155   147   149    1
  156   139   150    1
  157   150   151    1
@<TRIPOS>SUBSTRUCTURE
       1 MOL1            1 RESIDUE      1      MOL     
       2 MOL1          151 RESIDUE      1      MOL     
@<SCITEGIC>MOL_PROPERTY
feprocess Rank
SciTegic.value.IntegerValue
4

@<SCITEGIC>MOL_PROPERTY
Conf_Id
SciTegic.value.IntegerValue
982

@<SCITEGIC>MOL_PROPERTY
Probability
SciTegic.value.DoubleValue
2.94

@<SCITEGIC>MOL_PROPERTY
G
SciTegic.value.DoubleValue
589.190

@<SCITEGIC>MOL_PROPERTY
E
SciTegic.value.DoubleValue
386.859

@<SCITEGIC>MOL_PROPERTY
-TS
SciTegic.value.DoubleValue
202.331

@<SCITEGIC>MOL_PROPERTY
U+W
SciTegic.value.DoubleValue
253.617

@<SCITEGIC>MOL_PROPERTY
U
SciTegic.value.DoubleValue
290.335

@<SCITEGIC>MOL_PROPERTY
W
SciTegic.value.DoubleValue
-36.718

@<SCITEGIC>MOL_PROPERTY
W(PB)
SciTegic.value.DoubleValue
-42.817

@<SCITEGIC>MOL_PROPERTY
W(SA)
SciTegic.value.DoubleValue
6.099

@<SCITEGIC>MOL_PROPERTY
Valence
SciTegic.value.DoubleValue
163.470

@<SCITEGIC>MOL_PROPERTY
Coulomb
SciTegic.value.DoubleValue
152.849

@<SCITEGIC>MOL_PROPERTY
VdW
SciTegic.value.DoubleValue
-25.984

@<SCITEGIC>MOL_PROPERTY
VdW6
SciTegic.value.DoubleValue
-188.725

@<SCITEGIC>MOL_PROPERTY
VdW12
SciTegic.value.DoubleValue
162.741

@<SCITEGIC>MOL_PROPERTY
Bond
SciTegic.value.DoubleValue
4.987

@<SCITEGIC>MOL_PROPERTY
Angle
SciTegic.value.DoubleValue
16.382

@<SCITEGIC>MOL_PROPERTY
Pdih
SciTegic.value.DoubleValue
142.101

@<SCITEGIC>MOL_PROPERTY
Idih
SciTegic.value.DoubleValue
0.000

@<SCITEGIC>MOL_PROPERTY
Tether
SciTegic.value.DoubleValue
0.000

@<TRIPOS>MOLECULE
CD_guest-s17_fast_vm2_rndm.mol2 : feprocess host+ligand conformer 5
         151         157           2
SMALL
USER_CHARGES
 
@<TRIPOS>ATOM
       1    C1      16.402915   15.407403   22.049436 C.3        1 MOL1         0.2972
       2    H1      15.362004   15.300771   22.381615 H          1 MOL1         0.0751
       3    O1      16.702623   16.773661   21.700116 O.3        1 MOL1        -0.3740
       4    C2      17.361680   14.975793   23.184275 C.3        1 MOL1         0.1003
       5    H2      17.153113   13.923139   23.415718 H          1 MOL1         0.0783
       6    O2      17.142920   15.775332   24.356038 O.3        1 MOL1        -0.5519
       7    H3      16.892602   16.668857   24.032854 H          1 MOL1         0.3769
       8    C3      18.834568   15.087574   22.734676 C.3        1 MOL1         0.1053
       9    H4      19.064196   16.151709   22.589518 H          1 MOL1         0.0783
      10    O3      19.673134   14.545294   23.759736 O.3        1 MOL1        -0.5519
      11    H5      19.328201   14.930749   24.595714 H          1 MOL1         0.3769
      12    C4      19.086632   14.359547   21.391164 C.3        1 MOL1         0.1018
      13    H6      19.150028   13.278209   21.570747 H          1 MOL1         0.0783
      14    C5      17.993797   14.668728   20.330073 C.3        1 MOL1         0.1043
      15    H7      18.162295   15.695335   19.988508 H          1 MOL1         0.0783
      16    O4      16.660475   14.576939   20.896435 O.3        1 MOL1        -0.3740
      17    C6      18.065268   13.753700   19.084116 C.3        1 MOL1         0.0138
      18    H8      18.963660   14.016861   18.509580 H          1 MOL1         0.0794
      19    H9      17.197530   13.961112   18.443595 H          1 MOL1         0.0794
      20    O5      18.103641   12.365649   19.436929 O.3        1 MOL1        -0.5486
      21    H10     18.065661   11.845028   18.604934 H          1 MOL1         0.3769
      22    C7      14.743138   20.320850   20.740656 C.3        1 MOL1         0.2972
      23    H11     14.060740   21.091065   20.358640 H          1 MOL1         0.0751
      24    O6      15.939655   20.889100   21.300670 O.3        1 MOL1        -0.3740
      25    C8      14.073465   19.497655   21.868578 C.3        1 MOL1         0.1003
      26    H12     13.178551   19.022317   21.446441 H          1 MOL1         0.0783
      27    O7      13.690818   20.352554   22.959217 O.3        1 MOL1        -0.5519
      28    H13     14.439505   20.981406   23.116627 H          1 MOL1         0.3769
      29    C9      15.022456   18.379673   22.371118 C.3        1 MOL1         0.1053
      30    H14     15.866179   18.856282   22.885816 H          1 MOL1         0.0783
      31    O8      14.313514   17.539150   23.285580 O.3        1 MOL1        -0.5519
      32    H15     13.850556   18.154890   23.895802 H          1 MOL1         0.3769
      33    C10     15.591045   17.540376   21.196009 C.3        1 MOL1         0.1018
      34    H16     14.792659   16.893775   20.808771 H          1 MOL1         0.0783
      35    C11     16.129265   18.431318   20.041536 C.3        1 MOL1         0.1043
      36    H17     17.031106   18.948782   20.394464 H          1 MOL1         0.0783
      37    O9      15.122264   19.408880   19.687604 O.3        1 MOL1        -0.3740
      38    C12     16.527479   17.656413   18.758510 C.3        1 MOL1         0.0138
      39    H18     17.585125   17.377062   18.836169 H          1 MOL1         0.0794
      40    H19     16.447574   18.336587   17.900015 H          1 MOL1         0.0794
      41    O10     15.729881   16.486465   18.531911 O.3        1 MOL1        -0.5486
      42    H20     15.900755   15.862467   19.274174 H          1 MOL1         0.3769
      43    C13     18.347980   24.173623   21.459222 C.3        1 MOL1         0.2972
      44    H21     18.833783   25.157806   21.459001 H          1 MOL1         0.0751
      45    O11     19.300418   23.103633   21.634418 O.3        1 MOL1        -0.3740
      46    C14     17.316430   24.101522   22.608179 C.3        1 MOL1         0.1003
      47    H22     16.541156   24.853603   22.412281 H          1 MOL1         0.0783
      48    O12     17.946047   24.381618   23.868665 O.3        1 MOL1        -0.5519
      49    H23     18.901083   24.139039   23.776545 H          1 MOL1         0.3769
      50    C15     16.645586   22.711556   22.629084 C.3        1 MOL1         0.1053
      51    H24     17.417060   21.980596   22.890852 H          1 MOL1         0.0783
      52    O13     15.604334   22.681917   23.610862 O.3        1 MOL1        -0.5519
      53    H25     15.999155   23.098368   24.408896 H          1 MOL1         0.3769
      54    C16     16.077989   22.318840   21.244253 C.3        1 MOL1         0.1018
      55    H26     15.115080   22.827264   21.103785 H          1 MOL1         0.0783
      56    C17     17.043468   22.638324   20.065664 C.3        1 MOL1         0.1043
      57    H27     17.836285   21.880127   20.077587 H          1 MOL1         0.0783
      58    O14     17.645218   23.950307   20.220250 O.3        1 MOL1        -0.3740
      59    C18     16.369150   22.574076   18.674511 C.3        1 MOL1         0.0138
      60    H28     16.146441   21.524740   18.440593 H          1 MOL1         0.0794
      61    H29     17.085034   22.929674   17.921246 H          1 MOL1         0.0794
      62    O15     15.165579   23.349968   18.622736 O.3        1 MOL1        -0.5486
      63    H30     14.826873   23.313247   17.701656 H          1 MOL1         0.3769
      64    C19     23.465410   22.540119   21.326659 C.3        1 MOL1         0.2972
      65    H31     24.519989   22.741826   21.098462 H          1 MOL1         0.0751
      66    O16     23.266185   21.179252   21.749945 O.3        1 MOL1        -0.3740
      67    C20     22.969536   23.463558   22.473131 C.3        1 MOL1         0.1003
      68    H32     23.150121   24.499718   22.159001 H          1 MOL1         0.0783
      69    O17     23.694161   23.207665   23.687708 O.3        1 MOL1        -0.5519
      70    H33     23.781774   22.225286   23.780796 H          1 MOL1         0.3769
      71    C21     21.446761   23.298906   22.710141 C.3        1 MOL1         0.1053
      72    H34     21.263498   22.289647   23.101803 H          1 MOL1         0.0783
      73    O18     20.996337   24.278026   23.652706 O.3        1 MOL1        -0.5519
      74    H35     21.656469   24.253242   24.380581 H          1 MOL1         0.3769
      75    C22     20.673945   23.446483   21.379055 C.3        1 MOL1         0.1018
      76    H36     20.780086   24.479907   21.023209 H          1 MOL1         0.0783
      77    C23     21.239866   22.484373   20.302702 C.3        1 MOL1         0.1043
      78    H37     21.103527   21.450895   20.648476 H          1 MOL1         0.0783
      79    O19     22.651698   22.766135   20.153504 O.3        1 MOL1        -0.3740
      80    C24     20.570042   22.596352   18.908691 C.3        1 MOL1         0.0138
      81    H38     19.697794   21.931832   18.886229 H          1 MOL1         0.0794
      82    H39     21.273095   22.220427   18.153541 H          1 MOL1         0.0794
      83    O20     20.165353   23.930888   18.580750 O.3        1 MOL1        -0.5486
      84    H40     19.334156   24.110329   19.079284 H          1 MOL1         0.3769
      85    C25     25.113344   17.493161   21.837458 C.3        1 MOL1         0.2972
      86    H41     25.803099   16.639677   21.865387 H          1 MOL1         0.0751
      87    O21     23.744702   17.062103   21.711057 O.3        1 MOL1        -0.3740
      88    C26     25.236799   18.307807   23.146852 C.3        1 MOL1         0.1003
      89    H42     26.266251   18.682767   23.215316 H          1 MOL1         0.0783
      90    O22     24.953327   17.471209   24.279225 O.3        1 MOL1        -0.5519
      91    H43     24.321050   16.782120   23.966607 H          1 MOL1         0.3769
      92    C27     24.280309   19.520138   23.121363 C.3        1 MOL1         0.1053
      93    H44     23.256488   19.131047   23.138382 H          1 MOL1         0.0783
      94    O23     24.508778   20.344122   24.269549 O.3        1 MOL1        -0.5519
      95    H45     24.547198   19.721334   25.028514 H          1 MOL1         0.3769
      96    C28     24.449791   20.361058   21.835349 C.3        1 MOL1         0.1018
      97    H46     25.363118   20.962293   21.936134 H          1 MOL1         0.0783
      98    C29     24.517133   19.490995   20.547699 C.3        1 MOL1         0.1043
      99    H47     23.504774   19.115155   20.355086 H          1 MOL1         0.0783
     100    O24     25.416374   18.365394   20.729318 O.3        1 MOL1        -0.3740
     101    C30     24.970327   20.269690   19.289217 C.3        1 MOL1         0.0138
     102    H48     24.160778   20.945203   18.983340 H          1 MOL1         0.0794
     103    H49     25.121994   19.554501   18.469608 H          1 MOL1         0.0794
     104    O25     26.168779   21.019886   19.522243 O.3        1 MOL1        -0.5486
     105    H50     26.431206   21.433809   18.671290 H          1 MOL1         0.3769
     106    C31     21.318007   13.986025   20.390025 C.3        1 MOL1         0.2972
     107    H51     20.863323   13.097341   19.933761 H          1 MOL1         0.0751
     108    O26     20.315774   14.904618   20.874276 O.3        1 MOL1        -0.3740
     109    C32     22.285752   13.600309   21.541964 C.3        1 MOL1         0.1003
     110    H52     23.098160   13.010526   21.097797 H          1 MOL1         0.0783
     111    O27     21.638644   12.810670   22.550666 O.3        1 MOL1        -0.5519
     112    H53     20.949747   13.387314   22.967687 H          1 MOL1         0.3769
     113    C33     22.906071   14.873363   22.164816 C.3        1 MOL1         0.1053
     114    H54     22.097815   15.435040   22.647923 H          1 MOL1         0.0783
     115    O28     23.890013   14.510218   23.138838 O.3        1 MOL1        -0.5519
     116    H55     23.476950   13.794141   23.670132 H          1 MOL1         0.3769
     117    C34     23.544709   15.781796   21.083962 C.3        1 MOL1         0.1018
     118    H56     24.489464   15.322837   20.764631 H          1 MOL1         0.0783
     119    C35     22.623592   15.986071   19.845076 C.3        1 MOL1         0.1043
     120    H57     21.787203   16.631178   20.144817 H          1 MOL1         0.0783
     121    O29     22.106799   14.700608   19.413015 O.3        1 MOL1        -0.3740
     122    C36     23.297617   16.672379   18.626961 C.3        1 MOL1         0.0138
     123    H58     23.119485   17.752316   18.690525 H          1 MOL1         0.0794
     124    H59     22.796618   16.327841   17.712412 H          1 MOL1         0.0794
     125    O30     24.705233   16.423189   18.534853 O.3        1 MOL1        -0.5486
     126    H60     25.142526   16.987304   19.214989 H          1 MOL1         0.3769
     127    C1      18.996946   19.458056   23.083919 C.3        1 MOL1        -0.1684
     128    H1      18.971671   20.316488   22.399957 H          1 MOL1         0.0833
     129    H2      18.378432   18.683542   22.614041 H          1 MOL1         0.0833
     130    C2      18.328974   19.846600   24.426121 C.3        1 MOL1        -0.1684
     131    H3      17.292620   20.135124   24.209543 H          1 MOL1         0.0833
     132    H4      18.235037   18.967463   25.072949 H          1 MOL1         0.0833
     133    C3      18.985366   21.023315   25.194102 C.3        1 MOL1        -0.1684
     134    H5      18.314671   21.289076   26.022225 H          1 MOL1         0.0833
     135    H6      19.023051   21.907870   24.546855 H          1 MOL1         0.0833
     136    C4      20.399015   20.787652   25.789297 C.3        1 MOL1        -0.1760
     137    H7      21.169661   20.972636   25.035004 H          1 MOL1         0.0833
     138    H8      20.564914   21.568215   26.543752 H          1 MOL1         0.0833
     139    C5      20.622508   19.399692   26.440132 C.3        1 MOL1         0.1219
     140    H9      19.654681   18.956337   26.708699 H          1 MOL1         0.0790
     141    C6      21.414484   18.409766   25.550754 C.3        1 MOL1        -0.1760
     142    H10     22.368042   18.869701   25.269575 H          1 MOL1         0.0833
     143    H11     21.677728   17.537769   26.163234 H          1 MOL1         0.0833
     144    C7      20.700849   17.878656   24.279088 C.3        1 MOL1        -0.1684
     145    H12     19.770437   17.366095   24.552063 H          1 MOL1         0.0833
     146    H13     21.346981   17.100279   23.857413 H          1 MOL1         0.0833
     147    C8      20.448062   18.927183   23.164142 C.3        1 MOL1        -0.1684
     148    H14     20.683854   18.464220   22.196243 H          1 MOL1         0.0833
     149    H15     21.147956   19.763864   23.250207 H          1 MOL1         0.0833
     150    O1      21.372640   19.586145   27.635284 O.3        1 MOL1        -0.5508
     151    H16     21.475931   18.702383   28.042842 H          1 MOL1         0.3780
@<TRIPOS>BOND
    1     1     2    1
    2     1     3    1
    3     1     4    1
    4     4     5    1
    5     4     6    1
    6     6     7    1
    7     4     8    1
    8     8     9    1
    9     8    10    1
   10    10    11    1
   11     8    12    1
   12    12    13    1
   13    12    14    1
   14    14    15    1
   15     1    16    1
   16    14    16    1
   17    14    17    1
   18    17    18    1
   19    17    19    1
   20    17    20    1
   21    20    21    1
   22    22    23    1
   23    22    24    1
   24    22    25    1
   25    25    26    1
   26    25    27    1
   27    27    28    1
   28    25    29    1
   29    29    30    1
   30    29    31    1
   31    31    32    1
   32     3    33    1
   33    29    33    1
   34    33    34    1
   35    33    35    1
   36    35    36    1
   37    22    37    1
   38    35    37    1
   39    35    38    1
   40    38    39    1
   41    38    40    1
   42    38    41    1
   43    41    42    1
   44    43    44    1
   45    43    45    1
   46    43    46    1
   47    46    47    1
   48    46    48    1
   49    48    49    1
   50    46    50    1
   51    50    51    1
   52    50    52    1
   53    52    53    1
   54    24    54    1
   55    50    54    1
   56    54    55    1
   57    54    56    1
   58    56    57    1
   59    43    58    1
   60    56    58    1
   61    56    59    1
   62    59    60    1
   63    59    61    1
   64    59    62    1
   65    62    63    1
   66    64    65    1
   67    64    66    1
   68    64    67    1
   69    67    68    1
   70    67    69    1
   71    69    70    1
   72    67    71    1
   73    71    72    1
   74    71    73    1
   75    73    74    1
   76    45    75    1
   77    71    75    1
   78    75    76    1
   79    75    77    1
   80    77    78    1
   81    64    79    1
   82    77    79    1
   83    77    80    1
   84    80    81    1
   85    80    82    1
   86    80    83    1
   87    83    84    1
   88    85    86    1
   89    85    87    1
   90    85    88    1
   91    88    89    1
   92    88    90    1
   93    90    91    1
   94    88    92    1
   95    92    93    1
   96    92    94    1
   97    94    95    1
   98    66    96    1
   99    92    96    1
  100    96    97    1
  101    96    98    1
  102    98    99    1
  103    85   100    1
  104    98   100    1
  105    98   101    1
  106   101   102    1
  107   101   103    1
  108   101   104    1
  109   104   105    1
  110   106   107    1
  111    12   108    1
  112   106   108    1
  113   106   109    1
  114   109   110    1
  115   109   111    1
  116   111   112    1
  117   109   113    1
  118   113   114    1
  119   113   115    1
  120   115   116    1
  121    87   117    1
  122   113   117    1
  123   117   118    1
  124   117   119    1
  125   119   120    1
  126   106   121    1
  127   119   121    1
  128   119   122    1
  129   122   123    1
  130   122   124    1
  131   122   125    1
  132   125   126    1
  133   127   128    1
  134   127   129    1
  135   127   130    1
  136   130   131    1
  137   130   132    1
  138   130   133    1
  139   133   134    1
  140   133   135    1
  141   133   136    1
  142   136   137    1
  143   136   138    1
  144   136   139    1
  145   139   140    1
  146   139   141    1
  147   141   142    1
  148   141   143    1
  149   141   144    1
  150   144   145    1
  151   144   146    1
  152   127   147    1
  153   144   147    1
  154   147   148    1
  155   147   149    1
  156   139   150    1
  157   150   151    1
@<TRIPOS>SUBSTRUCTURE
       1 MOL1            1 RESIDUE      1      MOL     
       2 MOL1          151 RESIDUE      1      MOL     
@<SCITEGIC>MOL_PROPERTY
feprocess Rank
SciTegic.value.IntegerValue
5

@<SCITEGIC>MOL_PROPERTY
Conf_Id
SciTegic.value.IntegerValue
860

@<SCITEGIC>MOL_PROPERTY
Probability
SciTegic.value.DoubleValue
2.80

@<SCITEGIC>MOL_PROPERTY
G
SciTegic.value.DoubleValue
589.219

@<SCITEGIC>MOL_PROPERTY
E
SciTegic.value.DoubleValue
388.631

@<SCITEGIC>MOL_PROPERTY
-TS
SciTegic.value.DoubleValue
200.588

@<SCITEGIC>MOL_PROPERTY
U+W
SciTegic.value.DoubleValue
255.389

@<SCITEGIC>MOL_PROPERTY
U
SciTegic.value.DoubleValue
293.840

@<SCITEGIC>MOL_PROPERTY
W
SciTegic.value.DoubleValue
-38.451

@<SCITEGIC>MOL_PROPERTY
W(PB)
SciTegic.value.DoubleValue
-44.600

@<SCITEGIC>MOL_PROPERTY
W(SA)
SciTegic.value.DoubleValue
6.149

@<SCITEGIC>MOL_PROPERTY
Valence
SciTegic.value.DoubleValue
162.418

@<SCITEGIC>MOL_PROPERTY
Coulomb
SciTegic.value.DoubleValue
155.347

@<SCITEGIC>MOL_PROPERTY
VdW
SciTegic.value.DoubleValue
-23.925

@<SCITEGIC>MOL_PROPERTY
VdW6
SciTegic.value.DoubleValue
-182.509

@<SCITEGIC>MOL_PROPERTY
VdW12
SciTegic.value.DoubleValue
158.585

@<SCITEGIC>MOL_PROPERTY
Bond
SciTegic.value.DoubleValue
4.738

@<SCITEGIC>MOL_PROPERTY
Angle
SciTegic.value.DoubleValue
16.125

@<SCITEGIC>MOL_PROPERTY
Pdih
SciTegic.value.DoubleValue
141.555

@<SCITEGIC>MOL_PROPERTY
Idih
SciTegic.value.DoubleValue
0.000

@<SCITEGIC>MOL_PROPERTY
Tether
SciTegic.value.DoubleValue
0.000

@<TRIPOS>MOLECULE
CD_guest-s17_fast_vm2_rndm.mol2 : feprocess host+ligand conformer 6
         151         157           2
SMALL
USER_CHARGES
 
@<TRIPOS>ATOM
       1    C1      16.356062   15.221589   21.421474 C.3        1 MOL1         0.2972
       2    H1      15.286139   15.032581   21.266084 H          1 MOL1         0.0751
       3    O1      16.611901   16.623469   21.632685 O.3        1 MOL1        -0.3740
       4    C2      16.839631   14.444431   22.674208 C.3        1 MOL1         0.1003
       5    H2      16.596687   13.385678   22.516040 H          1 MOL1         0.0783
       6    O2      16.155337   14.915489   23.846033 O.3        1 MOL1        -0.5519
       7    H3      15.867607   15.841606   23.653413 H          1 MOL1         0.3769
       8    C3      18.372550   14.554547   22.861830 C.3        1 MOL1         0.1053
       9    H4      18.612397   15.591681   23.128210 H          1 MOL1         0.0783
      10    O3      18.793932   13.675274   23.910762 O.3        1 MOL1        -0.5519
      11    H5      18.173802   13.849783   24.652946 H          1 MOL1         0.3769
      12    C4      19.115917   14.203243   21.551931 C.3        1 MOL1         0.1018
      13    H6      18.989494   13.130120   21.357141 H          1 MOL1         0.0783
      14    C5      18.552542   15.019133   20.356620 C.3        1 MOL1         0.1043
      15    H7      18.745464   16.081403   20.551894 H          1 MOL1         0.0783
      16    O4      17.121667   14.795394   20.272245 O.3        1 MOL1        -0.3740
      17    C6      19.178801   14.690026   18.977507 C.3        1 MOL1         0.0138
      18    H8      20.090717   15.287980   18.856820 H          1 MOL1         0.0794
      19    H9      18.482256   15.010765   18.191388 H          1 MOL1         0.0794
      20    O5      19.492297   13.302755   18.817327 O.3        1 MOL1        -0.5486
      21    H10     20.402952   13.179137   19.169739 H          1 MOL1         0.3769
      22    C7      14.828885   20.351089   20.772368 C.3        1 MOL1         0.2972
      23    H11     14.124092   21.099510   20.388056 H          1 MOL1         0.0751
      24    O6      15.980249   20.970776   21.374415 O.3        1 MOL1        -0.3740
      25    C8      14.155483   19.493733   21.876813 C.3        1 MOL1         0.1003
      26    H12     13.251102   19.047174   21.443666 H          1 MOL1         0.0783
      27    O7      13.790303   20.320529   22.994349 O.3        1 MOL1        -0.5519
      28    H13     14.512943   20.986904   23.103037 H          1 MOL1         0.3769
      29    C9      15.083055   18.341038   22.342801 C.3        1 MOL1         0.1053
      30    H14     15.945464   18.780378   22.863019 H          1 MOL1         0.0783
      31    O8      14.366707   17.478115   23.232541 O.3        1 MOL1        -0.5519
      32    H15     13.917928   18.080114   23.866765 H          1 MOL1         0.3769
      33    C10     15.609793   17.532357   21.133060 C.3        1 MOL1         0.1018
      34    H16     14.766074   17.000312   20.673985 H          1 MOL1         0.0783
      35    C11     16.249289   18.474824   20.078449 C.3        1 MOL1         0.1043
      36    H17     17.119436   18.965747   20.529444 H          1 MOL1         0.0783
      37    O9      15.269577   19.474774   19.710692 O.3        1 MOL1        -0.3740
      38    C12     16.739863   17.778412   18.784264 C.3        1 MOL1         0.0138
      39    H18     17.756164   17.403190   18.954469 H          1 MOL1         0.0794
      40    H19     16.809093   18.531726   17.988378 H          1 MOL1         0.0794
      41    O10     15.892630   16.702077   18.367328 O.3        1 MOL1        -0.5486
      42    H20     16.124580   15.923827   18.925787 H          1 MOL1         0.3769
      43    C13     18.375501   24.344793   21.232495 C.3        1 MOL1         0.2972
      44    H21     18.814114   25.342065   21.100194 H          1 MOL1         0.0751
      45    O11     19.360694   23.370208   21.628801 O.3        1 MOL1        -0.3740
      46    C14     17.280830   24.370230   22.326652 C.3        1 MOL1         0.1003
      47    H22     16.493598   25.060626   21.997105 H          1 MOL1         0.0783
      48    O12     17.823240   24.825390   23.577472 O.3        1 MOL1        -0.5519
      49    H23     18.715576   24.408210   23.681809 H          1 MOL1         0.3769
      50    C15     16.653813   22.965058   22.489447 C.3        1 MOL1         0.1053
      51    H24     17.432588   22.305333   22.887983 H          1 MOL1         0.0783
      52    O13     15.557500   23.024928   23.408433 O.3        1 MOL1        -0.5519
      53    H25     15.890101   23.552706   24.167825 H          1 MOL1         0.3769
      54    C16     16.174150   22.380467   21.136217 C.3        1 MOL1         0.1018
      55    H26     15.236967   22.881745   20.861469 H          1 MOL1         0.0783
      56    C17     17.227836   22.553760   20.001755 C.3        1 MOL1         0.1043
      57    H27     18.048679   21.847731   20.183163 H          1 MOL1         0.0783
      58    O14     17.755392   23.903491   20.007879 O.3        1 MOL1        -0.3740
      59    C18     16.679202   22.277033   18.580926 C.3        1 MOL1         0.0138
      60    H28     16.553515   21.195248   18.454163 H          1 MOL1         0.0794
      61    H29     17.431252   22.599280   17.848395 H          1 MOL1         0.0794
      62    O15     15.434731   22.946088   18.339376 O.3        1 MOL1        -0.5486
      63    H30     15.166542   22.750425   17.415352 H          1 MOL1         0.3769
      64    C19     23.416396   22.642765   21.910693 C.3        1 MOL1         0.2972
      65    H31     24.510055   22.722095   21.966157 H          1 MOL1         0.0751
      66    O16     22.996871   21.262136   21.861821 O.3        1 MOL1        -0.3740
      67    C20     22.795190   23.326122   23.152702 C.3        1 MOL1         0.1003
      68    H32     23.123683   24.373561   23.149798 H          1 MOL1         0.0783
      69    O17     23.252805   22.687732   24.355901 O.3        1 MOL1        -0.5519
      70    H33     23.729893   21.868311   24.079307 H          1 MOL1         0.3769
      71    C21     21.252600   23.309110   23.084789 C.3        1 MOL1         0.1053
      72    H34     20.934535   22.270793   23.202027 H          1 MOL1         0.0783
      73    O18     20.712827   24.095203   24.151730 O.3        1 MOL1        -0.5519
      74    H35     21.215617   23.814691   24.948451 H          1 MOL1         0.3769
      75    C22     20.723621   23.827610   21.725312 C.3        1 MOL1         0.1018
      76    H36     20.798246   24.922944   21.717611 H          1 MOL1         0.0783
      77    C23     21.490741   23.231605   20.513299 C.3        1 MOL1         0.1043
      78    H37     21.190729   22.181151   20.419953 H          1 MOL1         0.0783
      79    O19     22.924014   23.301081   20.725647 O.3        1 MOL1        -0.3740
      80    C24     21.164157   23.930088   19.171439 C.3        1 MOL1         0.0138
      81    H38     20.135343   23.675046   18.885452 H          1 MOL1         0.0794
      82    H39     21.826302   23.526870   18.393527 H          1 MOL1         0.0794
      83    O20     21.306061   25.353547   19.257301 O.3        1 MOL1        -0.5486
      84    H40     21.123080   25.725076   18.367020 H          1 MOL1         0.3769
      85    C25     24.891009   17.593255   20.949983 C.3        1 MOL1         0.2972
      86    H41     25.616352   16.882049   20.534199 H          1 MOL1         0.0751
      87    O21     23.790921   16.914349   21.582441 O.3        1 MOL1        -0.3740
      88    C26     25.562909   18.471144   22.040752 C.3        1 MOL1         0.1003
      89    H42     26.432788   18.959202   21.582347 H          1 MOL1         0.0783
      90    O22     25.999603   17.653495   23.138860 O.3        1 MOL1        -0.5519
      91    H43     25.304688   16.963853   23.273179 H          1 MOL1         0.3769
      92    C27     24.603871   19.579406   22.548026 C.3        1 MOL1         0.1053
      93    H44     23.783839   19.100087   23.097845 H          1 MOL1         0.0783
      94    O23     25.311699   20.469143   23.418258 O.3        1 MOL1        -0.5519
      95    H45     25.826940   19.884843   24.018013 H          1 MOL1         0.3769
      96    C28     24.003887   20.362328   21.355260 C.3        1 MOL1         0.1018
      97    H46     24.815472   20.907978   20.855144 H          1 MOL1         0.0783
      98    C29     23.360413   19.402944   20.321120 C.3        1 MOL1         0.1043
      99    H47     22.526326   18.871097   20.793119 H          1 MOL1         0.0783
     100    O24     24.369631   18.451382   19.909545 O.3        1 MOL1        -0.3740
     101    C30     22.800584   20.102216   19.056356 C.3        1 MOL1         0.0138
     102    H48     21.776730   20.433941   19.267990 H          1 MOL1         0.0794
     103    H49     22.732132   19.361158   18.248955 H          1 MOL1         0.0794
     104    O25     23.593469   21.218473   18.632376 O.3        1 MOL1        -0.5486
     105    H50     23.488922   21.928716   19.307864 H          1 MOL1         0.3769
     106    C31     21.474128   13.544770   21.446297 C.3        1 MOL1         0.2972
     107    H51     21.017323   12.551248   21.354634 H          1 MOL1         0.0751
     108    O26     20.496681   14.556575   21.758983 O.3        1 MOL1        -0.3740
     109    C32     22.530255   13.531905   22.575042 C.3        1 MOL1         0.1003
     110    H52     23.302347   12.800691   22.302535 H          1 MOL1         0.0783
     111    O27     21.919645   13.147361   23.817552 O.3        1 MOL1        -0.5519
     112    H53     21.006851   13.529598   23.819712 H          1 MOL1         0.3769
     113    C33     23.204240   14.915874   22.714019 C.3        1 MOL1         0.1053
     114    H54     22.458593   15.599599   23.128036 H          1 MOL1         0.0783
     115    O28     24.308546   14.830150   23.620775 O.3        1 MOL1        -0.5519
     116    H55     23.963658   14.340742   24.399991 H          1 MOL1         0.3769
     117    C34     23.684786   15.492870   21.357269 C.3        1 MOL1         0.1018
     118    H56     24.657815   15.041199   21.124227 H          1 MOL1         0.0783
     119    C35     22.687260   15.256615   20.181213 C.3        1 MOL1         0.1043
     120    H57     21.867751   15.979310   20.284691 H          1 MOL1         0.0783
     121    O29     22.139633   13.913614   20.224107 O.3        1 MOL1        -0.3740
     122    C36     23.306080   15.459911   18.776557 C.3        1 MOL1         0.0138
     123    H58     23.454199   16.532695   18.604373 H          1 MOL1         0.0794
     124    H59     22.585259   15.112105   18.024535 H          1 MOL1         0.0794
     125    O30     24.550111   14.764703   18.626421 O.3        1 MOL1        -0.5486
     126    H60     24.853565   14.893619   17.701468 H          1 MOL1         0.3769
     127    C1      19.054341   19.879034   22.732448 C.3        1 MOL1        -0.1684
     128    H1      19.862909   20.596916   22.577002 H          1 MOL1         0.0833
     129    H2      18.254760   20.209352   22.065317 H          1 MOL1         0.0833
     130    C2      19.491936   18.476676   22.258206 C.3        1 MOL1        -0.1684
     131    H3      18.663016   17.778749   22.403446 H          1 MOL1         0.0833
     132    H4      19.666418   18.522112   21.175365 H          1 MOL1         0.0833
     133    C3      20.759146   17.896510   22.924224 C.3        1 MOL1        -0.1684
     134    H5      21.608219   18.573264   22.791481 H          1 MOL1         0.0833
     135    H6      21.016223   16.995346   22.361171 H          1 MOL1         0.0833
     136    C4      20.593222   17.505394   24.417496 C.3        1 MOL1        -0.1760
     137    H7      19.541798   17.314740   24.654829 H          1 MOL1         0.0833
     138    H8      21.085410   16.539903   24.582703 H          1 MOL1         0.0833
     139    C5      21.210838   18.498057   25.431500 C.3        1 MOL1         0.1219
     140    H9      22.299905   18.350927   25.397236 H          1 MOL1         0.0790
     141    C6      20.964148   20.005032   25.168964 C.3        1 MOL1        -0.1760
     142    H10     21.540453   20.570086   25.912652 H          1 MOL1         0.0833
     143    H11     21.415155   20.285023   24.212194 H          1 MOL1         0.0833
     144    C7      19.495608   20.506794   25.231798 C.3        1 MOL1        -0.1684
     145    H12     19.509662   21.598358   25.114269 H          1 MOL1         0.0833
     146    H13     19.090220   20.322404   26.235437 H          1 MOL1         0.0833
     147    C8      18.511838   19.928417   24.184281 C.3        1 MOL1        -0.1684
     148    H14     17.609162   20.551585   24.202991 H          1 MOL1         0.0833
     149    H15     18.156370   18.940706   24.496527 H          1 MOL1         0.0833
     150    O1      20.744018   18.166508   26.733323 O.3        1 MOL1        -0.5508
     151    H16     21.051496   18.879972   27.326745 H          1 MOL1         0.3780
@<TRIPOS>BOND
    1     1     2    1
    2     1     3    1
    3     1     4    1
    4     4     5    1
    5     4     6    1
    6     6     7    1
    7     4     8    1
    8     8     9    1
    9     8    10    1
   10    10    11    1
   11     8    12    1
   12    12    13    1
   13    12    14    1
   14    14    15    1
   15     1    16    1
   16    14    16    1
   17    14    17    1
   18    17    18    1
   19    17    19    1
   20    17    20    1
   21    20    21    1
   22    22    23    1
   23    22    24    1
   24    22    25    1
   25    25    26    1
   26    25    27    1
   27    27    28    1
   28    25    29    1
   29    29    30    1
   30    29    31    1
   31    31    32    1
   32     3    33    1
   33    29    33    1
   34    33    34    1
   35    33    35    1
   36    35    36    1
   37    22    37    1
   38    35    37    1
   39    35    38    1
   40    38    39    1
   41    38    40    1
   42    38    41    1
   43    41    42    1
   44    43    44    1
   45    43    45    1
   46    43    46    1
   47    46    47    1
   48    46    48    1
   49    48    49    1
   50    46    50    1
   51    50    51    1
   52    50    52    1
   53    52    53    1
   54    24    54    1
   55    50    54    1
   56    54    55    1
   57    54    56    1
   58    56    57    1
   59    43    58    1
   60    56    58    1
   61    56    59    1
   62    59    60    1
   63    59    61    1
   64    59    62    1
   65    62    63    1
   66    64    65    1
   67    64    66    1
   68    64    67    1
   69    67    68    1
   70    67    69    1
   71    69    70    1
   72    67    71    1
   73    71    72    1
   74    71    73    1
   75    73    74    1
   76    45    75    1
   77    71    75    1
   78    75    76    1
   79    75    77    1
   80    77    78    1
   81    64    79    1
   82    77    79    1
   83    77    80    1
   84    80    81    1
   85    80    82    1
   86    80    83    1
   87    83    84    1
   88    85    86    1
   89    85    87    1
   90    85    88    1
   91    88    89    1
   92    88    90    1
   93    90    91    1
   94    88    92    1
   95    92    93    1
   96    92    94    1
   97    94    95    1
   98    66    96    1
   99    92    96    1
  100    96    97    1
  101    96    98    1
  102    98    99    1
  103    85   100    1
  104    98   100    1
  105    98   101    1
  106   101   102    1
  107   101   103    1
  108   101   104    1
  109   104   105    1
  110   106   107    1
  111    12   108    1
  112   106   108    1
  113   106   109    1
  114   109   110    1
  115   109   111    1
  116   111   112    1
  117   109   113    1
  118   113   114    1
  119   113   115    1
  120   115   116    1
  121    87   117    1
  122   113   117    1
  123   117   118    1
  124   117   119    1
  125   119   120    1
  126   106   121    1
  127   119   121    1
  128   119   122    1
  129   122   123    1
  130   122   124    1
  131   122   125    1
  132   125   126    1
  133   127   128    1
  134   127   129    1
  135   127   130    1
  136   130   131    1
  137   130   132    1
  138   130   133    1
  139   133   134    1
  140   133   135    1
  141   133   136    1
  142   136   137    1
  143   136   138    1
  144   136   139    1
  145   139   140    1
  146   139   141    1
  147   141   142    1
  148   141   143    1
  149   141   144    1
  150   144   145    1
  151   144   146    1
  152   127   147    1
  153   144   147    1
  154   147   148    1
  155   147   149    1
  156   139   150    1
  157   150   151    1
@<TRIPOS>SUBSTRUCTURE
       1 MOL1            1 RESIDUE      1      MOL     
       2 MOL1          151 RESIDUE      1      MOL     
@<SCITEGIC>MOL_PROPERTY
feprocess Rank
SciTegic.value.IntegerValue
6

@<SCITEGIC>MOL_PROPERTY
Conf_Id
SciTegic.value.IntegerValue
155

@<SCITEGIC>MOL_PROPERTY
Probability
SciTegic.value.DoubleValue
2.63

@<SCITEGIC>MOL_PROPERTY
G
SciTegic.value.DoubleValue
589.257

@<SCITEGIC>MOL_PROPERTY
E
SciTegic.value.DoubleValue
388.910

@<SCITEGIC>MOL_PROPERTY
-TS
SciTegic.value.DoubleValue
200.347

@<SCITEGIC>MOL_PROPERTY
U+W
SciTegic.value.DoubleValue
255.668

@<SCITEGIC>MOL_PROPERTY
U
SciTegic.value.DoubleValue
295.394

@<SCITEGIC>MOL_PROPERTY
W
SciTegic.value.DoubleValue
-39.726

@<SCITEGIC>MOL_PROPERTY
W(PB)
SciTegic.value.DoubleValue
-45.798

@<SCITEGIC>MOL_PROPERTY
W(SA)
SciTegic.value.DoubleValue
6.072

@<SCITEGIC>MOL_PROPERTY
Valence
SciTegic.value.DoubleValue
164.601

@<SCITEGIC>MOL_PROPERTY
Coulomb
SciTegic.value.DoubleValue
158.141

@<SCITEGIC>MOL_PROPERTY
VdW
SciTegic.value.DoubleValue
-27.347

@<SCITEGIC>MOL_PROPERTY
VdW6
SciTegic.value.DoubleValue
-186.005

@<SCITEGIC>MOL_PROPERTY
VdW12
SciTegic.value.DoubleValue
158.658

@<SCITEGIC>MOL_PROPERTY
Bond
SciTegic.value.DoubleValue
4.801

@<SCITEGIC>MOL_PROPERTY
Angle
SciTegic.value.DoubleValue
15.598

@<SCITEGIC>MOL_PROPERTY
Pdih
SciTegic.value.DoubleValue
144.202

@<SCITEGIC>MOL_PROPERTY
Idih
SciTegic.value.DoubleValue
0.000

@<SCITEGIC>MOL_PROPERTY
Tether
SciTegic.value.DoubleValue
0.000

@<TRIPOS>MOLECULE
CD_guest-s17_fast_vm2_rndm.mol2 : feprocess host+ligand conformer 7
         151         157           2
SMALL
USER_CHARGES
 
@<TRIPOS>ATOM
       1    C1      16.511679   15.569472   20.500772 C.3        1 MOL1         0.2972
       2    H1      15.556801   15.398155   19.987148 H          1 MOL1         0.0751
       3    O1      16.497900   16.799814   21.244018 O.3        1 MOL1        -0.3740
       4    C2      16.797931   14.426517   21.513541 C.3        1 MOL1         0.1003
       5    H2      16.757132   13.480433   20.958337 H          1 MOL1         0.0783
       6    O2      15.804324   14.408937   22.552407 O.3        1 MOL1        -0.5519
       7    H3      15.664546   15.345690   22.840355 H          1 MOL1         0.3769
       8    C3      18.213345   14.554121   22.133812 C.3        1 MOL1         0.1053
       9    H4      18.230562   15.440556   22.780051 H          1 MOL1         0.0783
      10    O3      18.500847   13.383885   22.908010 O.3        1 MOL1        -0.5519
      11    H5      17.683828   13.217292   23.429734 H          1 MOL1         0.3769
      12    C4      19.273380   14.746890   21.022371 C.3        1 MOL1         0.1018
      13    H6      19.322702   13.831645   20.416905 H          1 MOL1         0.0783
      14    C5      18.897454   15.924583   20.092220 C.3        1 MOL1         0.1043
      15    H7      18.859756   16.848191   20.684234 H          1 MOL1         0.0783
      16    O4      17.590315   15.644572   19.539417 O.3        1 MOL1        -0.3740
      17    C6      19.899203   16.161864   18.932670 C.3        1 MOL1         0.0138
      18    H8      20.700073   16.816494   19.299407 H          1 MOL1         0.0794
      19    H9      19.385301   16.706054   18.129204 H          1 MOL1         0.0794
      20    O5      20.468283   14.948384   18.423391 O.3        1 MOL1        -0.5486
      21    H10     21.011137   14.552394   19.143251 H          1 MOL1         0.3769
      22    C7      14.489175   20.364047   21.530828 C.3        1 MOL1         0.2972
      23    H11     13.782293   21.202944   21.567267 H          1 MOL1         0.0751
      24    O6      15.849486   20.810079   21.691088 O.3        1 MOL1        -0.3740
      25    C8      14.181724   19.368842   22.673806 C.3        1 MOL1         0.1003
      26    H12     13.167073   18.979453   22.519102 H          1 MOL1         0.0783
      27    O7      14.253456   20.038297   23.942348 O.3        1 MOL1        -0.5519
      28    H13     14.928545   20.750831   23.843813 H          1 MOL1         0.3769
      29    C9      15.168561   18.180605   22.637018 C.3        1 MOL1         0.1053
      30    H14     16.160739   18.568637   22.893261 H          1 MOL1         0.0783
      31    O8      14.774443   17.190349   23.593097 O.3        1 MOL1        -0.5519
      32    H15     14.586301   17.692492   24.416111 H          1 MOL1         0.3769
      33    C10     15.260833   17.537889   21.233442 C.3        1 MOL1         0.1018
      34    H16     14.390267   16.882821   21.096057 H          1 MOL1         0.0783
      35    C11     15.342990   18.582280   20.082233 C.3        1 MOL1         0.1043
      36    H17     16.357016   19.000068   20.097737 H          1 MOL1         0.0783
      37    O9      14.384713   19.654171   20.280851 O.3        1 MOL1        -0.3740
      38    C12     15.108124   17.990534   18.670944 C.3        1 MOL1         0.0138
      39    H18     15.988008   17.400134   18.384234 H          1 MOL1         0.0794
      40    H19     15.027836   18.817990   17.953192 H          1 MOL1         0.0794
      41    O10     13.932947   17.172677   18.617346 O.3        1 MOL1        -0.5486
      42    H20     13.800949   16.901107   17.682851 H          1 MOL1         0.3769
      43    C13     18.384909   24.042821   21.064896 C.3        1 MOL1         0.2972
      44    H21     18.828726   25.007843   20.788266 H          1 MOL1         0.0751
      45    O11     19.380256   23.100475   21.509953 O.3        1 MOL1        -0.3740
      46    C14     17.360670   24.219360   22.214048 C.3        1 MOL1         0.1003
      47    H22     16.582832   24.908665   21.860795 H          1 MOL1         0.0783
      48    O12     17.993057   24.773199   23.379628 O.3        1 MOL1        -0.5519
      49    H23     18.852260   24.295393   23.504334 H          1 MOL1         0.3769
      50    C15     16.684775   22.869163   22.558391 C.3        1 MOL1         0.1053
      51    H24     17.444825   22.217354   23.006211 H          1 MOL1         0.0783
      52    O13     15.627776   23.084814   23.499238 O.3        1 MOL1        -0.5519
      53    H25     16.010694   23.676690   24.184011 H          1 MOL1         0.3769
      54    C16     16.130662   22.164800   21.293441 C.3        1 MOL1         0.1018
      55    H26     15.227767   22.697958   20.968120 H          1 MOL1         0.0783
      56    C17     17.166570   22.136264   20.131272 C.3        1 MOL1         0.1043
      57    H27     17.985161   21.461495   20.414520 H          1 MOL1         0.0783
      58    O14     17.690617   23.470943   19.937426 O.3        1 MOL1        -0.3740
      59    C18     16.624905   21.644790   18.762759 C.3        1 MOL1         0.0138
      60    H28     16.799552   20.566213   18.680197 H          1 MOL1         0.0794
      61    H29     17.216693   22.115450   17.966254 H          1 MOL1         0.0794
      62    O15     15.234830   21.925803   18.564364 O.3        1 MOL1        -0.5486
      63    H30     14.731036   21.254558   19.081485 H          1 MOL1         0.3769
      64    C19     23.489674   22.529252   21.607362 C.3        1 MOL1         0.2972
      65    H31     24.578609   22.667914   21.604624 H          1 MOL1         0.0751
      66    O16     23.136815   21.133145   21.607917 O.3        1 MOL1        -0.3740
      67    C20     22.883543   23.191376   22.868679 C.3        1 MOL1         0.1003
      68    H32     23.139730   24.258296   22.835482 H          1 MOL1         0.0783
      69    O17     23.431978   22.606561   24.061770 O.3        1 MOL1        -0.5519
      70    H33     24.117013   21.956078   23.772973 H          1 MOL1         0.3769
      71    C21     21.344174   23.062439   22.864768 C.3        1 MOL1         0.1053
      72    H34     21.097311   21.999413   22.967667 H          1 MOL1         0.0783
      73    O18     20.795712   23.797890   23.963583 O.3        1 MOL1        -0.5519
      74    H35     21.343929   23.535539   24.736562 H          1 MOL1         0.3769
      75    C22     20.740850   23.570444   21.534803 C.3        1 MOL1         0.1018
      76    H36     20.800115   24.666860   21.525238 H          1 MOL1         0.0783
      77    C23     21.468860   22.983804   20.292498 C.3        1 MOL1         0.1043
      78    H37     21.219466   21.917108   20.229716 H          1 MOL1         0.0783
      79    O19     22.904930   23.130628   20.433406 O.3        1 MOL1        -0.3740
      80    C24     21.046888   23.639797   18.955810 C.3        1 MOL1         0.0138
      81    H38     20.026865   23.314652   18.712639 H          1 MOL1         0.0794
      82    H39     21.704157   23.267154   18.158678 H          1 MOL1         0.0794
      83    O20     21.099828   25.070767   19.017222 O.3        1 MOL1        -0.5486
      84    H40     20.871204   25.415268   18.126571 H          1 MOL1         0.3769
      85    C25     25.179475   17.488405   21.181371 C.3        1 MOL1         0.2972
      86    H41     25.887967   16.717453   20.851962 H          1 MOL1         0.0751
      87    O21     24.170755   16.935755   22.046861 O.3        1 MOL1        -0.3740
      88    C26     25.918294   18.584903   21.994941 C.3        1 MOL1         0.1003
      89    H42     26.703498   19.003680   21.352121 H          1 MOL1         0.0783
      90    O22     26.514165   18.014350   23.169364 O.3        1 MOL1        -0.5519
      91    H43     25.818635   17.447838   23.576592 H          1 MOL1         0.3769
      92    C27     24.957900   19.732876   22.397269 C.3        1 MOL1         0.1053
      93    H44     24.233729   19.336323   23.120028 H          1 MOL1         0.0783
      94    O23     25.706429   20.792209   23.003723 O.3        1 MOL1        -0.5519
      95    H45     26.330360   20.345521   23.619054 H          1 MOL1         0.3769
      96    C28     24.180153   20.250445   21.161676 C.3        1 MOL1         0.1018
      97    H46     24.881834   20.763313   20.490258 H          1 MOL1         0.0783
      98    C29     23.508474   19.091525   20.383888 C.3        1 MOL1         0.1043
      99    H47     22.753051   18.624224   21.026574 H          1 MOL1         0.0783
     100    O24     24.526605   18.118374   20.052315 O.3        1 MOL1        -0.3740
     101    C30     22.782220   19.537775   19.088538 C.3        1 MOL1         0.0138
     102    H48     21.761266   19.840708   19.354837 H          1 MOL1         0.0794
     103    H49     22.694838   18.673196   18.417154 H          1 MOL1         0.0794
     104    O25     23.439784   20.621083   18.418540 O.3        1 MOL1        -0.5486
     105    H50     23.383188   21.408164   19.007128 H          1 MOL1         0.3769
     106    C31     21.409412   13.900760   21.768487 C.3        1 MOL1         0.2972
     107    H51     20.846437   12.959929   21.711663 H          1 MOL1         0.0751
     108    O26     20.542490   15.043958   21.630670 O.3        1 MOL1        -0.3740
     109    C32     22.140374   13.980876   23.124258 C.3        1 MOL1         0.1003
     110    H52     22.839440   13.136219   23.175826 H          1 MOL1         0.0783
     111    O27     21.187321   13.880042   24.198448 O.3        1 MOL1        -0.5519
     112    H53     20.308468   13.691266   23.784570 H          1 MOL1         0.3769
     113    C33     22.956171   15.291584   23.209872 C.3        1 MOL1         0.1053
     114    H54     22.239811   16.119084   23.231549 H          1 MOL1         0.0783
     115    O28     23.735059   15.308697   24.412082 O.3        1 MOL1        -0.5519
     116    H55     23.082495   15.377046   25.146098 H          1 MOL1         0.3769
     117    C34     23.871062   15.521570   21.975666 C.3        1 MOL1         0.1018
     118    H56     24.780183   14.919578   22.099469 H          1 MOL1         0.0783
     119    C35     23.172275   15.175563   20.616659 C.3        1 MOL1         0.1043
     120    H57     22.503047   16.006441   20.363418 H          1 MOL1         0.0783
     121    O29     22.393229   13.956565   20.721977 O.3        1 MOL1        -0.3740
     122    C36     24.133074   14.954024   19.418449 C.3        1 MOL1         0.0138
     123    H58     24.480292   15.919688   19.036182 H          1 MOL1         0.0794
     124    H59     23.565677   14.485381   18.602867 H          1 MOL1         0.0794
     125    O30     25.255884   14.135315   19.767084 O.3        1 MOL1        -0.5486
     126    H60     25.765454   13.962272   18.945452 H          1 MOL1         0.3769
     127    C1      18.927306   19.780049   23.302537 C.3        1 MOL1        -0.1684
     128    H1      19.237271   20.830167   23.355508 H          1 MOL1         0.0833
     129    H2      18.158877   19.736458   22.520877 H          1 MOL1         0.0833
     130    C2      18.265363   19.395259   24.651074 C.3        1 MOL1        -0.1684
     131    H3      18.834476   19.807838   25.491307 H          1 MOL1         0.0833
     132    H4      17.299061   19.915827   24.694682 H          1 MOL1         0.0833
     133    C3      18.006944   17.880464   24.859713 C.3        1 MOL1        -0.1684
     134    H5      17.917431   17.367379   23.895329 H          1 MOL1         0.0833
     135    H6      17.023412   17.774577   25.336458 H          1 MOL1         0.0833
     136    C4      19.032222   17.153408   25.771093 C.3        1 MOL1        -0.1760
     137    H7      19.079794   17.656632   26.745382 H          1 MOL1         0.0833
     138    H8      18.640516   16.147774   25.972381 H          1 MOL1         0.0833
     139    C5      20.462727   17.001037   25.203502 C.3        1 MOL1         0.1219
     140    H9      20.391536   16.560296   24.202120 H          1 MOL1         0.0790
     141    C6      21.258074   18.328612   25.134296 C.3        1 MOL1        -0.1760
     142    H10     20.834861   19.060259   25.829440 H          1 MOL1         0.0833
     143    H11     22.277873   18.156630   25.504054 H          1 MOL1         0.0833
     144    C7      21.383463   18.943448   23.717594 C.3        1 MOL1        -0.1684
     145    H12     22.167410   18.389782   23.191125 H          1 MOL1         0.0833
     146    H13     21.755125   19.971862   23.809421 H          1 MOL1         0.0833
     147    C8      20.121105   18.922241   22.819645 C.3        1 MOL1        -0.1684
     148    H14     19.795196   17.892442   22.637286 H          1 MOL1         0.0833
     149    H15     20.415858   19.302595   21.832767 H          1 MOL1         0.0833
     150    O1      21.177387   16.092318   26.035036 O.3        1 MOL1        -0.5508
     151    H16     20.970028   15.191170   25.691989 H          1 MOL1         0.3780
@<TRIPOS>BOND
    1     1     2    1
    2     1     3    1
    3     1     4    1
    4     4     5    1
    5     4     6    1
    6     6     7    1
    7     4     8    1
    8     8     9    1
    9     8    10    1
   10    10    11    1
   11     8    12    1
   12    12    13    1
   13    12    14    1
   14    14    15    1
   15     1    16    1
   16    14    16    1
   17    14    17    1
   18    17    18    1
   19    17    19    1
   20    17    20    1
   21    20    21    1
   22    22    23    1
   23    22    24    1
   24    22    25    1
   25    25    26    1
   26    25    27    1
   27    27    28    1
   28    25    29    1
   29    29    30    1
   30    29    31    1
   31    31    32    1
   32     3    33    1
   33    29    33    1
   34    33    34    1
   35    33    35    1
   36    35    36    1
   37    22    37    1
   38    35    37    1
   39    35    38    1
   40    38    39    1
   41    38    40    1
   42    38    41    1
   43    41    42    1
   44    43    44    1
   45    43    45    1
   46    43    46    1
   47    46    47    1
   48    46    48    1
   49    48    49    1
   50    46    50    1
   51    50    51    1
   52    50    52    1
   53    52    53    1
   54    24    54    1
   55    50    54    1
   56    54    55    1
   57    54    56    1
   58    56    57    1
   59    43    58    1
   60    56    58    1
   61    56    59    1
   62    59    60    1
   63    59    61    1
   64    59    62    1
   65    62    63    1
   66    64    65    1
   67    64    66    1
   68    64    67    1
   69    67    68    1
   70    67    69    1
   71    69    70    1
   72    67    71    1
   73    71    72    1
   74    71    73    1
   75    73    74    1
   76    45    75    1
   77    71    75    1
   78    75    76    1
   79    75    77    1
   80    77    78    1
   81    64    79    1
   82    77    79    1
   83    77    80    1
   84    80    81    1
   85    80    82    1
   86    80    83    1
   87    83    84    1
   88    85    86    1
   89    85    87    1
   90    85    88    1
   91    88    89    1
   92    88    90    1
   93    90    91    1
   94    88    92    1
   95    92    93    1
   96    92    94    1
   97    94    95    1
   98    66    96    1
   99    92    96    1
  100    96    97    1
  101    96    98    1
  102    98    99    1
  103    85   100    1
  104    98   100    1
  105    98   101    1
  106   101   102    1
  107   101   103    1
  108   101   104    1
  109   104   105    1
  110   106   107    1
  111    12   108    1
  112   106   108    1
  113   106   109    1
  114   109   110    1
  115   109   111    1
  116   111   112    1
  117   109   113    1
  118   113   114    1
  119   113   115    1
  120   115   116    1
  121    87   117    1
  122   113   117    1
  123   117   118    1
  124   117   119    1
  125   119   120    1
  126   106   121    1
  127   119   121    1
  128   119   122    1
  129   122   123    1
  130   122   124    1
  131   122   125    1
  132   125   126    1
  133   127   128    1
  134   127   129    1
  135   127   130    1
  136   130   131    1
  137   130   132    1
  138   130   133    1
  139   133   134    1
  140   133   135    1
  141   133   136    1
  142   136   137    1
  143   136   138    1
  144   136   139    1
  145   139   140    1
  146   139   141    1
  147   141   142    1
  148   141   143    1
  149   141   144    1
  150   144   145    1
  151   144   146    1
  152   127   147    1
  153   144   147    1
  154   147   148    1
  155   147   149    1
  156   139   150    1
  157   150   151    1
@<TRIPOS>SUBSTRUCTURE
       1 MOL1            1 RESIDUE      1      MOL     
       2 MOL1          151 RESIDUE      1      MOL     
@<SCITEGIC>MOL_PROPERTY
feprocess Rank
SciTegic.value.IntegerValue
7

@<SCITEGIC>MOL_PROPERTY
Conf_Id
SciTegic.value.IntegerValue
560

@<SCITEGIC>MOL_PROPERTY
Probability
SciTegic.value.DoubleValue
2.57

@<SCITEGIC>MOL_PROPERTY
G
SciTegic.value.DoubleValue
589.270

@<SCITEGIC>MOL_PROPERTY
E
SciTegic.value.DoubleValue
387.249

@<SCITEGIC>MOL_PROPERTY
-TS
SciTegic.value.DoubleValue
202.022

@<SCITEGIC>MOL_PROPERTY
U+W
SciTegic.value.DoubleValue
254.007

@<SCITEGIC>MOL_PROPERTY
U
SciTegic.value.DoubleValue
289.398

@<SCITEGIC>MOL_PROPERTY
W
SciTegic.value.DoubleValue
-35.392

@<SCITEGIC>MOL_PROPERTY
W(PB)
SciTegic.value.DoubleValue
-41.402

@<SCITEGIC>MOL_PROPERTY
W(SA)
SciTegic.value.DoubleValue
6.010

@<SCITEGIC>MOL_PROPERTY
Valence
SciTegic.value.DoubleValue
161.894

@<SCITEGIC>MOL_PROPERTY
Coulomb
SciTegic.value.DoubleValue
152.878

@<SCITEGIC>MOL_PROPERTY
VdW
SciTegic.value.DoubleValue
-25.374

@<SCITEGIC>MOL_PROPERTY
VdW6
SciTegic.value.DoubleValue
-187.916

@<SCITEGIC>MOL_PROPERTY
VdW12
SciTegic.value.DoubleValue
162.542

@<SCITEGIC>MOL_PROPERTY
Bond
SciTegic.value.DoubleValue
4.910

@<SCITEGIC>MOL_PROPERTY
Angle
SciTegic.value.DoubleValue
16.360

@<SCITEGIC>MOL_PROPERTY
Pdih
SciTegic.value.DoubleValue
140.624

@<SCITEGIC>MOL_PROPERTY
Idih
SciTegic.value.DoubleValue
0.000

@<SCITEGIC>MOL_PROPERTY
Tether
SciTegic.value.DoubleValue
0.000

@<TRIPOS>MOLECULE
CD_guest-s17_fast_vm2_rndm.mol2 : feprocess host+ligand conformer 8
         151         157           2
SMALL
USER_CHARGES
 
@<TRIPOS>ATOM
       1    C1      16.203721   15.085067   20.950437 C.3        1 MOL1         0.2972
       2    H1      15.145601   14.993085   20.674364 H          1 MOL1         0.0751
       3    O1      16.509539   16.392638   21.476240 O.3        1 MOL1        -0.3740
       4    C2      16.550043   14.046639   22.042893 C.3        1 MOL1         0.1003
       5    H2      16.353397   13.047596   21.632773 H          1 MOL1         0.0783
       6    O2      15.733541   14.258711   23.206229 O.3        1 MOL1        -0.5519
       7    H3      15.563325   15.231970   23.265633 H          1 MOL1         0.3769
       8    C3      18.047414   14.131828   22.412826 C.3        1 MOL1         0.1053
       9    H4      18.206173   15.096214   22.905803 H          1 MOL1         0.0783
      10    O3      18.389466   13.070562   23.310444 O.3        1 MOL1        -0.5519
      11    H5      17.676183   13.068714   23.986509 H          1 MOL1         0.3769
      12    C4      18.957264   14.084185   21.160887 C.3        1 MOL1         0.1018
      13    H6      18.980301   13.052102   20.787533 H          1 MOL1         0.0783
      14    C5      18.470927   15.047179   20.038603 C.3        1 MOL1         0.1043
      15    H7      18.636894   16.075532   20.383312 H          1 MOL1         0.0783
      16    O4      17.053624   14.844014   19.809197 O.3        1 MOL1        -0.3740
      17    C6      19.203901   14.912184   18.679033 C.3        1 MOL1         0.0138
      18    H8      20.064746   15.591327   18.678554 H          1 MOL1         0.0794
      19    H9      18.530491   15.257626   17.883210 H          1 MOL1         0.0794
      20    O5      19.645253   13.579475   18.400612 O.3        1 MOL1        -0.5486
      21    H10     20.515310   13.473246   18.848877 H          1 MOL1         0.3769
      22    C7      14.898631   20.289652   21.283109 C.3        1 MOL1         0.2972
      23    H11     14.191528   21.098490   21.057990 H          1 MOL1         0.0751
      24    O6      16.126122   20.802059   21.830452 O.3        1 MOL1        -0.3740
      25    C8      14.294310   19.328059   22.341475 C.3        1 MOL1         0.1003
      26    H12     13.320658   18.990413   21.963446 H          1 MOL1         0.0783
      27    O7      14.109829   20.015893   23.589999 O.3        1 MOL1        -0.5519
      28    H13     14.904445   20.589383   23.717652 H          1 MOL1         0.3769
      29    C9      15.186269   18.078186   22.550619 C.3        1 MOL1         0.1053
      30    H14     16.119324   18.398418   23.031636 H          1 MOL1         0.0783
      31    O8      14.505289   17.133098   23.383968 O.3        1 MOL1        -0.5519
      32    H15     14.163917   17.657559   24.141433 H          1 MOL1         0.3769
      33    C10     15.549320   17.426765   21.196983 C.3        1 MOL1         0.1018
      34    H16     14.632390   17.025173   20.745729 H          1 MOL1         0.0783
      35    C11     16.174736   18.477187   20.242217 C.3        1 MOL1         0.1043
      36    H17     17.094035   18.868214   20.699657 H          1 MOL1         0.0783
      37    O9      15.212482   19.545311   20.085493 O.3        1 MOL1        -0.3740
      38    C12     16.550179   17.957904   18.831770 C.3        1 MOL1         0.0138
      39    H18     17.552695   17.515300   18.878850 H          1 MOL1         0.0794
      40    H19     16.615011   18.817467   18.151567 H          1 MOL1         0.0794
      41    O10     15.622075   16.995765   18.319120 O.3        1 MOL1        -0.5486
      42    H20     15.900815   16.120571   18.674148 H          1 MOL1         0.3769
      43    C13     18.514283   24.162958   21.634437 C.3        1 MOL1         0.2972
      44    H21     18.931490   25.177114   21.590495 H          1 MOL1         0.0751
      45    O11     19.541794   23.156515   21.509166 O.3        1 MOL1        -0.3740
      46    C14     17.782237   23.962100   22.982246 C.3        1 MOL1         0.1003
      47    H22     16.977016   24.706330   23.035480 H          1 MOL1         0.0783
      48    O12     18.682286   24.154915   24.085879 O.3        1 MOL1        -0.5519
      49    H23     19.602764   24.080786   23.731035 H          1 MOL1         0.3769
      50    C15     17.141952   22.559099   23.051815 C.3        1 MOL1         0.1053
      51    H24     17.958266   21.832664   23.102543 H          1 MOL1         0.0783
      52    O13     16.329941   22.457383   24.226668 O.3        1 MOL1        -0.5519
      53    H25     16.876650   22.841741   24.946704 H          1 MOL1         0.3769
      54    C16     16.291533   22.233772   21.800634 C.3        1 MOL1         0.1018
      55    H26     15.330811   22.755875   21.899768 H          1 MOL1         0.0783
      56    C17     16.988736   22.638273   20.466039 C.3        1 MOL1         0.1043
      57    H27     17.793394   21.917538   20.269979 H          1 MOL1         0.0783
      58    O14     17.554235   23.967393   20.579561 O.3        1 MOL1        -0.3740
      59    C18     16.057948   22.646980   19.228051 C.3        1 MOL1         0.0138
      60    H28     15.879821   21.613910   18.907209 H          1 MOL1         0.0794
      61    H29     16.582583   23.148469   18.403752 H          1 MOL1         0.0794
      62    O15     14.809943   23.301917   19.489210 O.3        1 MOL1        -0.5486
      63    H30     14.305498   23.327041   18.647081 H          1 MOL1         0.3769
      64    C19     23.519423   22.639167   20.464073 C.3        1 MOL1         0.2972
      65    H31     24.546145   22.711066   20.083064 H          1 MOL1         0.0751
      66    O16     23.210141   21.298191   20.895349 O.3        1 MOL1        -0.3740
      67    C20     23.274093   23.647235   21.621307 C.3        1 MOL1         0.1003
      68    H32     23.389089   24.655188   21.201806 H          1 MOL1         0.0783
      69    O17     24.212711   23.483367   22.694574 O.3        1 MOL1        -0.5519
      70    H33     24.035652   22.594455   23.094107 H          1 MOL1         0.3769
      71    C21     21.825428   23.510456   22.143743 C.3        1 MOL1         0.1053
      72    H34     21.724725   22.510949   22.581086 H          1 MOL1         0.0783
      73    O18     21.565144   24.504374   23.140653 O.3        1 MOL1        -0.5519
      74    H35     22.365261   24.511826   23.711877 H          1 MOL1         0.3769
      75    C22     20.800286   23.638026   20.991330 C.3        1 MOL1         0.1018
      76    H36     20.746879   24.692205   20.689057 H          1 MOL1         0.0783
      77    C23     21.176999   22.783705   19.748337 C.3        1 MOL1         0.1043
      78    H37     20.995122   21.726792   19.983631 H          1 MOL1         0.0783
      79    O19     22.579523   22.969789   19.420274 O.3        1 MOL1        -0.3740
      80    C24     20.337978   23.131197   18.495480 C.3        1 MOL1         0.0138
      81    H38     19.300466   22.822213   18.674456 H          1 MOL1         0.0794
      82    H39     20.713038   22.541708   17.648308 H          1 MOL1         0.0794
      83    O20     20.380352   24.530361   18.186052 O.3        1 MOL1        -0.5486
      84    H40     19.835012   24.674861   17.382721 H          1 MOL1         0.3769
      85    C25     24.765321   17.705882   22.179646 C.3        1 MOL1         0.2972
      86    H41     25.378874   16.875923   22.553251 H          1 MOL1         0.0751
      87    O21     23.496462   17.246498   21.678730 O.3        1 MOL1        -0.3740
      88    C26     24.505762   18.727952   23.312601 C.3        1 MOL1         0.1003
      89    H42     25.482780   19.111472   23.634254 H          1 MOL1         0.0783
      90    O22     23.847872   18.111466   24.432252 O.3        1 MOL1        -0.5519
      91    H43     23.800635   17.143068   24.243036 H          1 MOL1         0.3769
      92    C27     23.667500   19.918328   22.796049 C.3        1 MOL1         0.1053
      93    H44     22.659876   19.547757   22.560991 H          1 MOL1         0.0783
      94    O23     23.595642   20.906414   23.829172 O.3        1 MOL1        -0.5519
      95    H45     23.363899   20.397160   24.637824 H          1 MOL1         0.3769
      96    C28     24.266415   20.530287   21.503683 C.3        1 MOL1         0.1018
      97    H46     25.131258   21.151231   21.771310 H          1 MOL1         0.0783
      98    C29     24.689493   19.452351   20.465102 C.3        1 MOL1         0.1043
      99    H47     23.774808   19.030753   20.028977 H          1 MOL1         0.0783
     100    O24     25.442015   18.390125   21.105089 O.3        1 MOL1        -0.3740
     101    C30     25.532688   20.016190   19.296449 C.3        1 MOL1         0.0138
     102    H48     24.879970   20.630149   18.661236 H          1 MOL1         0.0794
     103    H49     25.887549   19.176702   18.683632 H          1 MOL1         0.0794
     104    O25     26.640130   20.800856   19.756573 O.3        1 MOL1        -0.5486
     105    H50     27.172294   21.054972   18.971146 H          1 MOL1         0.3769
     106    C31     21.371890   13.692096   21.307096 C.3        1 MOL1         0.2972
     107    H51     21.065126   12.654329   21.124318 H          1 MOL1         0.0751
     108    O26     20.245489   14.531271   21.618330 O.3        1 MOL1        -0.3740
     109    C32     22.325922   13.752276   22.525107 C.3        1 MOL1         0.1003
     110    H52     23.201415   13.131487   22.294336 H          1 MOL1         0.0783
     111    O27     21.668772   13.237063   23.694094 O.3        1 MOL1        -0.5519
     112    H53     20.710781   13.459097   23.599983 H          1 MOL1         0.3769
     113    C33     22.813507   15.199633   22.777057 C.3        1 MOL1         0.1053
     114    H54     21.954462   15.801742   23.097261 H          1 MOL1         0.0783
     115    O28     23.804304   15.188576   23.810011 O.3        1 MOL1        -0.5519
     116    H55     23.450471   14.573746   24.492097 H          1 MOL1         0.3769
     117    C34     23.378227   15.828455   21.477992 C.3        1 MOL1         0.1018
     118    H56     24.347027   15.367483   21.245604 H          1 MOL1         0.0783
     119    C35     22.420031   15.639456   20.272447 C.3        1 MOL1         0.1043
     120    H57     21.518677   16.238017   20.459881 H          1 MOL1         0.0783
     121    O29     22.051437   14.241770   20.156733 O.3        1 MOL1        -0.3740
     122    C36     23.008169   16.123791   18.921996 C.3        1 MOL1         0.0138
     123    H58     22.874295   17.211554   18.857128 H          1 MOL1         0.0794
     124    H59     22.425698   15.679275   18.104266 H          1 MOL1         0.0794
     125    O30     24.396050   15.803726   18.767304 O.3        1 MOL1        -0.5486
     126    H60     24.898302   16.380417   19.384371 H          1 MOL1         0.3769
     127    C1      17.813672   18.462541   25.631799 C.3        1 MOL1        -0.1684
     128    H1      17.074932   18.199498   26.400923 H          1 MOL1         0.0833
     129    H2      17.253030   19.075580   24.918059 H          1 MOL1         0.0833
     130    C2      18.281561   17.134965   24.978956 C.3        1 MOL1        -0.1684
     131    H3      18.383836   16.389666   25.779214 H          1 MOL1         0.0833
     132    H4      17.481664   16.759870   24.327478 H          1 MOL1         0.0833
     133    C3      19.621694   17.155637   24.199216 C.3        1 MOL1        -0.1684
     134    H5      19.866592   16.119212   23.939289 H          1 MOL1         0.0833
     135    H6      20.442574   17.468180   24.854272 H          1 MOL1         0.0833
     136    C4      19.630985   17.984052   22.888724 C.3        1 MOL1        -0.1760
     137    H7      20.604339   17.836794   22.402508 H          1 MOL1         0.0833
     138    H8      18.881822   17.576106   22.200923 H          1 MOL1         0.0833
     139    C5      19.386469   19.503680   23.031808 C.3        1 MOL1         0.1219
     140    H9      18.320203   19.670900   23.217694 H          1 MOL1         0.0790
     141    C6      20.214259   20.172420   24.161042 C.3        1 MOL1        -0.1760
     142    H10     21.092795   19.564211   24.404827 H          1 MOL1         0.0833
     143    H11     20.617575   21.119595   23.789479 H          1 MOL1         0.0833
     144    C7      19.426741   20.505709   25.455853 C.3        1 MOL1        -0.1684
     145    H12     18.575176   21.151288   25.212540 H          1 MOL1         0.0833
     146    H13     20.080687   21.115021   26.094230 H          1 MOL1         0.0833
     147    C8      18.928274   19.305728   26.301651 C.3        1 MOL1        -0.1684
     148    H14     18.515410   19.719512   27.231575 H          1 MOL1         0.0833
     149    H15     19.768397   18.674710   26.617968 H          1 MOL1         0.0833
     150    O1      19.717992   20.115521   21.787467 O.3        1 MOL1        -0.5508
     151    H16     19.613023   21.083354   21.900931 H          1 MOL1         0.3780
@<TRIPOS>BOND
    1     1     2    1
    2     1     3    1
    3     1     4    1
    4     4     5    1
    5     4     6    1
    6     6     7    1
    7     4     8    1
    8     8     9    1
    9     8    10    1
   10    10    11    1
   11     8    12    1
   12    12    13    1
   13    12    14    1
   14    14    15    1
   15     1    16    1
   16    14    16    1
   17    14    17    1
   18    17    18    1
   19    17    19    1
   20    17    20    1
   21    20    21    1
   22    22    23    1
   23    22    24    1
   24    22    25    1
   25    25    26    1
   26    25    27    1
   27    27    28    1
   28    25    29    1
   29    29    30    1
   30    29    31    1
   31    31    32    1
   32     3    33    1
   33    29    33    1
   34    33    34    1
   35    33    35    1
   36    35    36    1
   37    22    37    1
   38    35    37    1
   39    35    38    1
   40    38    39    1
   41    38    40    1
   42    38    41    1
   43    41    42    1
   44    43    44    1
   45    43    45    1
   46    43    46    1
   47    46    47    1
   48    46    48    1
   49    48    49    1
   50    46    50    1
   51    50    51    1
   52    50    52    1
   53    52    53    1
   54    24    54    1
   55    50    54    1
   56    54    55    1
   57    54    56    1
   58    56    57    1
   59    43    58    1
   60    56    58    1
   61    56    59    1
   62    59    60    1
   63    59    61    1
   64    59    62    1
   65    62    63    1
   66    64    65    1
   67    64    66    1
   68    64    67    1
   69    67    68    1
   70    67    69    1
   71    69    70    1
   72    67    71    1
   73    71    72    1
   74    71    73    1
   75    73    74    1
   76    45    75    1
   77    71    75    1
   78    75    76    1
   79    75    77    1
   80    77    78    1
   81    64    79    1
   82    77    79    1
   83    77    80    1
   84    80    81    1
   85    80    82    1
   86    80    83    1
   87    83    84    1
   88    85    86    1
   89    85    87    1
   90    85    88    1
   91    88    89    1
   92    88    90    1
   93    90    91    1
   94    88    92    1
   95    92    93    1
   96    92    94    1
   97    94    95    1
   98    66    96    1
   99    92    96    1
  100    96    97    1
  101    96    98    1
  102    98    99    1
  103    85   100    1
  104    98   100    1
  105    98   101    1
  106   101   102    1
  107   101   103    1
  108   101   104    1
  109   104   105    1
  110   106   107    1
  111    12   108    1
  112   106   108    1
  113   106   109    1
  114   109   110    1
  115   109   111    1
  116   111   112    1
  117   109   113    1
  118   113   114    1
  119   113   115    1
  120   115   116    1
  121    87   117    1
  122   113   117    1
  123   117   118    1
  124   117   119    1
  125   119   120    1
  126   106   121    1
  127   119   121    1
  128   119   122    1
  129   122   123    1
  130   122   124    1
  131   122   125    1
  132   125   126    1
  133   127   128    1
  134   127   129    1
  135   127   130    1
  136   130   131    1
  137   130   132    1
  138   130   133    1
  139   133   134    1
  140   133   135    1
  141   133   136    1
  142   136   137    1
  143   136   138    1
  144   136   139    1
  145   139   140    1
  146   139   141    1
  147   141   142    1
  148   141   143    1
  149   141   144    1
  150   144   145    1
  151   144   146    1
  152   127   147    1
  153   144   147    1
  154   147   148    1
  155   147   149    1
  156   139   150    1
  157   150   151    1
@<TRIPOS>SUBSTRUCTURE
       1 MOL1            1 RESIDUE      1      MOL     
       2 MOL1          151 RESIDUE      1      MOL     
@<SCITEGIC>MOL_PROPERTY
feprocess Rank
SciTegic.value.IntegerValue
8

@<SCITEGIC>MOL_PROPERTY
Conf_Id
SciTegic.value.IntegerValue
553

@<SCITEGIC>MOL_PROPERTY
Probability
SciTegic.value.DoubleValue
2.50

@<SCITEGIC>MOL_PROPERTY
G
SciTegic.value.DoubleValue
589.287

@<SCITEGIC>MOL_PROPERTY
E
SciTegic.value.DoubleValue
386.994

@<SCITEGIC>MOL_PROPERTY
-TS
SciTegic.value.DoubleValue
202.292

@<SCITEGIC>MOL_PROPERTY
U+W
SciTegic.value.DoubleValue
253.752

@<SCITEGIC>MOL_PROPERTY
U
SciTegic.value.DoubleValue
289.646

@<SCITEGIC>MOL_PROPERTY
W
SciTegic.value.DoubleValue
-35.894

@<SCITEGIC>MOL_PROPERTY
W(PB)
SciTegic.value.DoubleValue
-42.045

@<SCITEGIC>MOL_PROPERTY
W(SA)
SciTegic.value.DoubleValue
6.151

@<SCITEGIC>MOL_PROPERTY
Valence
SciTegic.value.DoubleValue
162.554

@<SCITEGIC>MOL_PROPERTY
Coulomb
SciTegic.value.DoubleValue
153.654

@<SCITEGIC>MOL_PROPERTY
VdW
SciTegic.value.DoubleValue
-26.562

@<SCITEGIC>MOL_PROPERTY
VdW6
SciTegic.value.DoubleValue
-187.466

@<SCITEGIC>MOL_PROPERTY
VdW12
SciTegic.value.DoubleValue
160.904

@<SCITEGIC>MOL_PROPERTY
Bond
SciTegic.value.DoubleValue
4.686

@<SCITEGIC>MOL_PROPERTY
Angle
SciTegic.value.DoubleValue
15.739

@<SCITEGIC>MOL_PROPERTY
Pdih
SciTegic.value.DoubleValue
142.129

@<SCITEGIC>MOL_PROPERTY
Idih
SciTegic.value.DoubleValue
0.000

@<SCITEGIC>MOL_PROPERTY
Tether
SciTegic.value.DoubleValue
0.000

