@<TRIPOS>MOLECULE
CD_guest-s10_fast_vm2_rndm.mol2 : feprocess host+ligand conformer 1
         146         151           2
SMALL
USER_CHARGES
 
@<TRIPOS>ATOM
       1    C1      16.277102   15.271571   20.469373 C.3        1 MOL1         0.2972
       2    H1      15.270534   15.079305   20.076213 H          1 MOL1         0.0751
       3    O1      16.395116   16.598358   21.022003 O.3        1 MOL1        -0.3740
       4    C2      16.620012   14.270584   21.601841 C.3        1 MOL1         0.1003
       5    H2      16.566993   13.260053   21.176189 H          1 MOL1         0.0783
       6    O2      15.677604   14.379835   22.681469 O.3        1 MOL1        -0.5519
       7    H3      15.494447   15.343548   22.818612 H          1 MOL1         0.3769
       8    C3      18.062344   14.496529   22.121422 C.3        1 MOL1         0.1053
       9    H4      18.088613   15.473302   22.618123 H          1 MOL1         0.0783
      10    O3      18.380980   13.472515   23.070313 O.3        1 MOL1        -0.5519
      11    H5      17.562689   13.363876   23.606538 H          1 MOL1         0.3769
      12    C4      19.081981   14.513577   20.946226 C.3        1 MOL1         0.1018
      13    H6      19.200669   13.493103   20.559841 H          1 MOL1         0.0783
      14    C5      18.619133   15.443681   19.793461 C.3        1 MOL1         0.1043
      15    H7      18.655044   16.479748   20.151792 H          1 MOL1         0.0783
      16    O4      17.260026   15.118059   19.423095 O.3        1 MOL1        -0.3740
      17    C6      19.515392   15.372028   18.531551 C.3        1 MOL1         0.0138
      18    H8      20.433752   15.942120   18.723798 H          1 MOL1         0.0794
      19    H9      18.994019   15.870469   17.703626 H          1 MOL1         0.0794
      20    O5      19.853437   14.029232   18.164204 O.3        1 MOL1        -0.5486
      21    H10     20.479536   13.689318   18.839630 H          1 MOL1         0.3769
      22    C7      14.605816   20.306010   21.130523 C.3        1 MOL1         0.2972
      23    H11     13.955874   21.188407   21.068872 H          1 MOL1         0.0751
      24    O6      15.975436   20.663828   21.413805 O.3        1 MOL1        -0.3740
      25    C8      14.118446   19.330942   22.232073 C.3        1 MOL1         0.1003
      26    H12     13.121116   18.976627   21.940420 H          1 MOL1         0.0783
      27    O7      14.029366   19.980848   23.509281 O.3        1 MOL1        -0.5519
      28    H13     14.882279   20.461995   23.660549 H          1 MOL1         0.3769
      29    C9      15.058273   18.104230   22.307364 C.3        1 MOL1         0.1053
      30    H14     16.041610   18.452239   22.644720 H          1 MOL1         0.0783
      31    O8      14.541419   17.151536   23.242128 O.3        1 MOL1        -0.5519
      32    H15     14.260674   17.683365   24.020117 H          1 MOL1         0.3769
      33    C10     15.228192   17.436760   20.920196 C.3        1 MOL1         0.1018
      34    H16     14.319769   16.856612   20.711202 H          1 MOL1         0.0783
      35    C11     15.480543   18.457847   19.772768 C.3        1 MOL1         0.1043
      36    H17     16.510270   18.824332   19.859305 H          1 MOL1         0.0783
      37    O9      14.574583   19.583348   19.882434 O.3        1 MOL1        -0.3740
      38    C12     15.327369   17.848548   18.358283 C.3        1 MOL1         0.0138
      39    H18     16.175067   17.175937   18.172920 H          1 MOL1         0.0794
      40    H19     15.388540   18.658897   17.619607 H          1 MOL1         0.0794
      41    O10     14.095742   17.130865   18.208549 O.3        1 MOL1        -0.5486
      42    H20     14.045517   16.816782   17.279424 H          1 MOL1         0.3769
      43    C13     18.517016   23.856977   22.054294 C.3        1 MOL1         0.2972
      44    H21     18.980376   24.833142   22.248702 H          1 MOL1         0.0751
      45    O11     19.498579   22.867749   21.694022 O.3        1 MOL1        -0.3740
      46    C14     17.778575   23.363950   23.320399 C.3        1 MOL1         0.1003
      47    H22     16.994140   24.096536   23.551120 H          1 MOL1         0.0783
      48    O12     18.684759   23.269885   24.432220 O.3        1 MOL1        -0.5519
      49    H23     19.573111   23.553982   24.106452 H          1 MOL1         0.3769
      50    C15     17.104802   21.997819   23.057515 C.3        1 MOL1         0.1053
      51    H24     17.894453   21.256493   22.895782 H          1 MOL1         0.0783
      52    O13     16.331423   21.626407   24.201036 O.3        1 MOL1        -0.5519
      53    H25     16.897787   21.860600   24.970478 H          1 MOL1         0.3769
      54    C16     16.216950   22.034699   21.789181 C.3        1 MOL1         0.1018
      55    H26     15.288910   22.570403   22.029217 H          1 MOL1         0.0783
      56    C17     16.926728   22.708132   20.580131 C.3        1 MOL1         0.1043
      57    H27     17.694718   22.013709   20.218604 H          1 MOL1         0.0783
      58    O14     17.563455   23.950972   20.975381 O.3        1 MOL1        -0.3740
      59    C18     15.976227   22.999050   19.394324 C.3        1 MOL1         0.0138
      60    H28     15.684425   22.043098   18.938593 H          1 MOL1         0.0794
      61    H29     16.526618   23.568653   18.633418 H          1 MOL1         0.0794
      62    O15     14.806413   23.716942   19.806336 O.3        1 MOL1        -0.5486
      63    H30     14.282356   23.919672   19.000868 H          1 MOL1         0.3769
      64    C19     23.535995   22.640996   20.696932 C.3        1 MOL1         0.2972
      65    H31     24.541523   22.833983   20.301135 H          1 MOL1         0.0751
      66    O16     23.405240   21.295820   21.201248 O.3        1 MOL1        -0.3740
      67    C20     23.203713   23.609103   21.863804 C.3        1 MOL1         0.1003
      68    H32     23.250994   24.632308   21.468992 H          1 MOL1         0.0783
      69    O17     24.151070   23.471002   22.935156 O.3        1 MOL1        -0.5519
      70    H33     24.270385   22.502153   23.105197 H          1 MOL1         0.3769
      71    C21     21.765066   23.358898   22.380987 C.3        1 MOL1         0.1053
      72    H34     21.743431   22.359069   22.830929 H          1 MOL1         0.0783
      73    O18     21.420646   24.336962   23.367958 O.3        1 MOL1        -0.5519
      74    H35     22.219983   24.418800   23.935365 H          1 MOL1         0.3769
      75    C22     20.747516   23.391113   21.212428 C.3        1 MOL1         0.1018
      76    H36     20.648492   24.425119   20.856084 H          1 MOL1         0.0783
      77    C23     21.189359   22.490984   20.030224 C.3        1 MOL1         0.1043
      78    H37     21.161017   21.448803   20.365624 H          1 MOL1         0.0783
      79    O19     22.545903   22.832405   19.660484 O.3        1 MOL1        -0.3740
      80    C24     20.277708   22.584782   18.778689 C.3        1 MOL1         0.0138
      81    H38     19.480652   21.836871   18.875937 H          1 MOL1         0.0794
      82    H39     20.866084   22.307542   17.893867 H          1 MOL1         0.0794
      83    O20     19.695067   23.881933   18.597135 O.3        1 MOL1        -0.5486
      84    H40     19.054478   24.022991   19.331864 H          1 MOL1         0.3769
      85    C25     25.250794   17.628618   21.381873 C.3        1 MOL1         0.2972
      86    H41     25.911891   16.752502   21.364586 H          1 MOL1         0.0751
      87    O21     23.859136   17.246628   21.450501 O.3        1 MOL1        -0.3740
      88    C26     25.585339   18.564905   22.572155 C.3        1 MOL1         0.1003
      89    H42     26.596319   18.957643   22.401646 H          1 MOL1         0.0783
      90    O22     25.568368   17.869014   23.826459 O.3        1 MOL1        -0.5519
      91    H43     24.667682   17.470628   23.929642 H          1 MOL1         0.3769
      92    C27     24.607506   19.764138   22.589690 C.3        1 MOL1         0.1053
      93    H44     23.596778   19.381173   22.784315 H          1 MOL1         0.0783
      94    O23     24.980620   20.678201   23.625862 O.3        1 MOL1        -0.5519
      95    H45     25.180835   20.113302   24.405397 H          1 MOL1         0.3769
      96    C28     24.602529   20.496914   21.223941 C.3        1 MOL1         0.1018
      97    H46     25.509003   21.114028   21.167188 H          1 MOL1         0.0783
      98    C29     24.537665   19.530654   20.003757 C.3        1 MOL1         0.1043
      99    H47     23.513390   19.146854   19.924774 H          1 MOL1         0.0783
     100    O24     25.440248   18.410171   20.183682 O.3        1 MOL1        -0.3740
     101    C30     24.870835   20.215222   18.656286 C.3        1 MOL1         0.0138
     102    H48     24.041288   20.883733   18.389584 H          1 MOL1         0.0794
     103    H49     24.930145   19.443684   17.876975 H          1 MOL1         0.0794
     104    O25     26.094516   20.959108   18.714808 O.3        1 MOL1        -0.5486
     105    H50     26.275029   21.306593   17.814066 H          1 MOL1         0.3769
     106    C31     21.229418   14.124373   22.054002 C.3        1 MOL1         0.2972
     107    H51     20.733287   13.171142   22.275198 H          1 MOL1         0.0751
     108    O26     20.339472   15.050317   21.399355 O.3        1 MOL1        -0.3740
     109    C32     21.734697   14.783176   23.360232 C.3        1 MOL1         0.1003
     110    H52     22.445627   14.086630   23.823767 H          1 MOL1         0.0783
     111    O27     20.648230   15.038935   24.269399 O.3        1 MOL1        -0.5519
     112    H53     19.940156   14.383020   24.054489 H          1 MOL1         0.3769
     113    C33     22.472806   16.104035   23.047719 C.3        1 MOL1         0.1053
     114    H54     21.731492   16.807812   22.656741 H          1 MOL1         0.0783
     115    O28     23.034632   16.615184   24.259076 O.3        1 MOL1        -0.5519
     116    H55     22.437184   16.295491   24.969370 H          1 MOL1         0.3769
     117    C34     23.566495   15.930144   21.964049 C.3        1 MOL1         0.1018
     118    H56     24.445619   15.458652   22.423093 H          1 MOL1         0.0783
     119    C35     23.075028   15.087401   20.752459 C.3        1 MOL1         0.1043
     120    H57     22.385781   15.707694   20.165587 H          1 MOL1         0.0783
     121    O29     22.370547   13.901974   21.199147 O.3        1 MOL1        -0.3740
     122    C36     24.218829   14.653951   19.804630 C.3        1 MOL1         0.0138
     123    H58     24.589924   15.543762   19.278001 H          1 MOL1         0.0794
     124    H59     23.807806   13.973590   19.046801 H          1 MOL1         0.0794
     125    O30     25.295767   14.023625   20.509672 O.3        1 MOL1        -0.5486
     126    H60     25.947558   13.714502   19.843075 H          1 MOL1         0.3769
     127    N1      20.115605   17.817047   25.058108 N.4        1 MOL1        -0.5937
     128    H1      20.823003   18.012341   25.770819 H          1 MOL1         0.3684
     129    H2      20.240937   16.835956   24.760343 H          1 MOL1         0.3684
     130    H3      19.198646   17.886522   25.505310 H          1 MOL1         0.3684
     131    C1      20.237844   18.762853   23.895521 C.3        1 MOL1         0.1270
     132    H4      21.240131   18.617734   23.482128 H          1 MOL1         0.0960
     133    C2      20.120171   20.215295   24.381315 C.3        1 MOL1        -0.2382
     134    H5      20.238255   20.920288   23.553842 H          1 MOL1         0.1009
     135    H6      20.899084   20.442434   25.119292 H          1 MOL1         0.1009
     136    H7      19.145456   20.401481   24.848627 H          1 MOL1         0.1009
     137    C3      19.199724   18.430463   22.799564 C.3        1 MOL1        -0.1392
     138    H8      19.206926   17.348353   22.629156 H          1 MOL1         0.0998
     139    H9      18.196899   18.677129   23.168732 H          1 MOL1         0.0998
     140    C4      19.430695   19.126747   21.435672 C.3        1 MOL1        -0.1302
     141    H10     19.381879   20.215964   21.545086 H          1 MOL1         0.0998
     142    H11     18.608092   18.855772   20.761755 H          1 MOL1         0.0998
     143    C5      20.768988   18.729205   20.776556 C.3        1 MOL1        -0.2317
     144    H12     20.845915   17.642018   20.657594 H          1 MOL1         0.1009
     145    H13     21.622475   19.068732   21.375825 H          1 MOL1         0.1009
     146    H14     20.860140   19.178389   19.779797 H          1 MOL1         0.1009
@<TRIPOS>BOND
    1     1     2    1
    2     1     3    1
    3     1     4    1
    4     4     5    1
    5     4     6    1
    6     6     7    1
    7     4     8    1
    8     8     9    1
    9     8    10    1
   10    10    11    1
   11     8    12    1
   12    12    13    1
   13    12    14    1
   14    14    15    1
   15     1    16    1
   16    14    16    1
   17    14    17    1
   18    17    18    1
   19    17    19    1
   20    17    20    1
   21    20    21    1
   22    22    23    1
   23    22    24    1
   24    22    25    1
   25    25    26    1
   26    25    27    1
   27    27    28    1
   28    25    29    1
   29    29    30    1
   30    29    31    1
   31    31    32    1
   32     3    33    1
   33    29    33    1
   34    33    34    1
   35    33    35    1
   36    35    36    1
   37    22    37    1
   38    35    37    1
   39    35    38    1
   40    38    39    1
   41    38    40    1
   42    38    41    1
   43    41    42    1
   44    43    44    1
   45    43    45    1
   46    43    46    1
   47    46    47    1
   48    46    48    1
   49    48    49    1
   50    46    50    1
   51    50    51    1
   52    50    52    1
   53    52    53    1
   54    24    54    1
   55    50    54    1
   56    54    55    1
   57    54    56    1
   58    56    57    1
   59    43    58    1
   60    56    58    1
   61    56    59    1
   62    59    60    1
   63    59    61    1
   64    59    62    1
   65    62    63    1
   66    64    65    1
   67    64    66    1
   68    64    67    1
   69    67    68    1
   70    67    69    1
   71    69    70    1
   72    67    71    1
   73    71    72    1
   74    71    73    1
   75    73    74    1
   76    45    75    1
   77    71    75    1
   78    75    76    1
   79    75    77    1
   80    77    78    1
   81    64    79    1
   82    77    79    1
   83    77    80    1
   84    80    81    1
   85    80    82    1
   86    80    83    1
   87    83    84    1
   88    85    86    1
   89    85    87    1
   90    85    88    1
   91    88    89    1
   92    88    90    1
   93    90    91    1
   94    88    92    1
   95    92    93    1
   96    92    94    1
   97    94    95    1
   98    66    96    1
   99    92    96    1
  100    96    97    1
  101    96    98    1
  102    98    99    1
  103    85   100    1
  104    98   100    1
  105    98   101    1
  106   101   102    1
  107   101   103    1
  108   101   104    1
  109   104   105    1
  110   106   107    1
  111    12   108    1
  112   106   108    1
  113   106   109    1
  114   109   110    1
  115   109   111    1
  116   111   112    1
  117   109   113    1
  118   113   114    1
  119   113   115    1
  120   115   116    1
  121    87   117    1
  122   113   117    1
  123   117   118    1
  124   117   119    1
  125   119   120    1
  126   106   121    1
  127   119   121    1
  128   119   122    1
  129   122   123    1
  130   122   124    1
  131   122   125    1
  132   125   126    1
  133   127   128    1
  134   127   129    1
  135   127   130    1
  136   127   131    1
  137   131   132    1
  138   131   133    1
  139   133   134    1
  140   133   135    1
  141   133   136    1
  142   131   137    1
  143   137   138    1
  144   137   139    1
  145   137   140    1
  146   140   141    1
  147   140   142    1
  148   140   143    1
  149   143   144    1
  150   143   145    1
  151   143   146    1
@<TRIPOS>SUBSTRUCTURE
       1 MOL1            1 RESIDUE      1      MOL     
       2 MOL1          146 RESIDUE      1      MOL     
@<SCITEGIC>MOL_PROPERTY
feprocess Rank
SciTegic.value.IntegerValue
1

@<SCITEGIC>MOL_PROPERTY
Conf_Id
SciTegic.value.IntegerValue
568

@<SCITEGIC>MOL_PROPERTY
Probability
SciTegic.value.DoubleValue
74.38

@<SCITEGIC>MOL_PROPERTY
G
SciTegic.value.DoubleValue
534.374

@<SCITEGIC>MOL_PROPERTY
E
SciTegic.value.DoubleValue
340.922

@<SCITEGIC>MOL_PROPERTY
-TS
SciTegic.value.DoubleValue
193.453

@<SCITEGIC>MOL_PROPERTY
U+W
SciTegic.value.DoubleValue
212.151

@<SCITEGIC>MOL_PROPERTY
U
SciTegic.value.DoubleValue
301.634

@<SCITEGIC>MOL_PROPERTY
W
SciTegic.value.DoubleValue
-89.490

@<SCITEGIC>MOL_PROPERTY
W(PB)
SciTegic.value.DoubleValue
-95.537

@<SCITEGIC>MOL_PROPERTY
W(SA)
SciTegic.value.DoubleValue
6.047

@<SCITEGIC>MOL_PROPERTY
Valence
SciTegic.value.DoubleValue
147.581

@<SCITEGIC>MOL_PROPERTY
Coulomb
SciTegic.value.DoubleValue
178.231

@<SCITEGIC>MOL_PROPERTY
VdW
SciTegic.value.DoubleValue
-24.177

@<SCITEGIC>MOL_PROPERTY
VdW6
SciTegic.value.DoubleValue
-177.332

@<SCITEGIC>MOL_PROPERTY
VdW12
SciTegic.value.DoubleValue
153.155

@<SCITEGIC>MOL_PROPERTY
Bond
SciTegic.value.DoubleValue
4.598

@<SCITEGIC>MOL_PROPERTY
Angle
SciTegic.value.DoubleValue
11.810

@<SCITEGIC>MOL_PROPERTY
Pdih
SciTegic.value.DoubleValue
131.172

@<SCITEGIC>MOL_PROPERTY
Idih
SciTegic.value.DoubleValue
0.000

@<SCITEGIC>MOL_PROPERTY
Tether
SciTegic.value.DoubleValue
0.000

