@<TRIPOS>MOLECULE
CD_guest-s22_fast_vm2_rndm.mol2 : feprocess host+ligand conformer 1
         146         151           2
SMALL
USER_CHARGES
 
@<TRIPOS>ATOM
       1    C1      16.498207   15.308149   20.304666 C.3        1 MOL1         0.2972
       2    H1      15.492457   15.246345   19.870697 H          1 MOL1         0.0751
       3    O1      16.809223   16.658600   20.712445 O.3        1 MOL1        -0.3740
       4    C2      16.649609   14.324622   21.497759 C.3        1 MOL1         0.1003
       5    H2      16.485356   13.316791   21.094831 H          1 MOL1         0.0783
       6    O2      15.682025   14.567266   22.530761 O.3        1 MOL1        -0.5519
       7    H3      15.902551   15.449792   22.922525 H          1 MOL1         0.3769
       8    C3      18.081167   14.364047   22.085801 C.3        1 MOL1         0.1053
       9    H4      18.212512   15.323841   22.601892 H          1 MOL1         0.0783
      10    O3      18.220809   13.282929   23.013784 O.3        1 MOL1        -0.5519
      11    H5      17.481085   13.387919   23.650248 H          1 MOL1         0.3769
      12    C4      19.175642   14.262035   20.989784 C.3        1 MOL1         0.1018
      13    H6      19.294085   13.209372   20.703761 H          1 MOL1         0.0783
      14    C5      18.861041   15.110376   19.725120 C.3        1 MOL1         0.1043
      15    H7      19.012198   16.163983   19.982331 H          1 MOL1         0.0783
      16    O4      17.482729   14.914659   19.324183 O.3        1 MOL1        -0.3740
      17    C6      19.783613   14.828483   18.511446 C.3        1 MOL1         0.0138
      18    H8      20.685716   15.444614   18.611624 H          1 MOL1         0.0794
      19    H9      19.272642   15.166284   17.599948 H          1 MOL1         0.0794
      20    O5      20.152381   13.449232   18.386402 O.3        1 MOL1        -0.5486
      21    H10     20.747644   13.235761   19.138393 H          1 MOL1         0.3769
      22    C7      15.049726   20.254767   21.857195 C.3        1 MOL1         0.2972
      23    H11     14.356722   21.028322   22.212367 H          1 MOL1         0.0751
      24    O6      16.249822   20.834465   21.312198 O.3        1 MOL1        -0.3740
      25    C8      15.434975   19.309072   23.026906 C.3        1 MOL1         0.1003
      26    H12     14.504006   18.875894   23.414214 H          1 MOL1         0.0783
      27    O7      16.081609   20.049496   24.076900 O.3        1 MOL1        -0.5519
      28    H13     16.038353   21.005110   23.833341 H          1 MOL1         0.3769
      29    C9      16.333194   18.143018   22.537489 C.3        1 MOL1         0.1053
      30    H14     17.305430   18.568428   22.264659 H          1 MOL1         0.0783
      31    O8      16.496925   17.163935   23.574041 O.3        1 MOL1        -0.5519
      32    H15     17.444640   17.223969   23.872389 H          1 MOL1         0.3769
      33    C10     15.745873   17.450901   21.280488 C.3        1 MOL1         0.1018
      34    H16     14.889443   16.835511   21.584129 H          1 MOL1         0.0783
      35    C11     15.288999   18.470565   20.203099 C.3        1 MOL1         0.1043
      36    H17     16.183193   18.954280   19.786993 H          1 MOL1         0.0783
      37    O9      14.435156   19.468688   20.815461 O.3        1 MOL1        -0.3740
      38    C12     14.522150   17.831294   19.020732 C.3        1 MOL1         0.0138
      39    H18     15.236736   17.262735   18.410328 H          1 MOL1         0.0794
      40    H19     14.122285   18.635755   18.389006 H          1 MOL1         0.0794
      41    O10     13.464141   16.969727   19.460173 O.3        1 MOL1        -0.5486
      42    H20     12.970423   16.674129   18.664516 H          1 MOL1         0.3769
      43    C13     18.353567   24.288569   20.842316 C.3        1 MOL1         0.2972
      44    H21     18.794074   25.273489   20.640878 H          1 MOL1         0.0751
      45    O11     19.367987   23.278229   21.037094 O.3        1 MOL1        -0.3740
      46    C14     17.399713   24.329426   22.063800 C.3        1 MOL1         0.1003
      47    H22     16.537542   24.946517   21.778423 H          1 MOL1         0.0783
      48    O12     18.016718   24.915942   23.217756 O.3        1 MOL1        -0.5519
      49    H23     18.779185   24.334020   23.462770 H          1 MOL1         0.3769
      50    C15     16.880270   22.903798   22.367509 C.3        1 MOL1         0.1053
      51    H24     17.737181   22.284490   22.668259 H          1 MOL1         0.0783
      52    O13     15.929627   22.956877   23.436708 O.3        1 MOL1        -0.5519
      53    H25     16.305107   23.599575   24.080268 H          1 MOL1         0.3769
      54    C16     16.235927   22.260582   21.108907 C.3        1 MOL1         0.1018
      55    H26     15.213287   22.642683   20.993306 H          1 MOL1         0.0783
      56    C17     17.022201   22.522285   19.789193 C.3        1 MOL1         0.1043
      57    H27     17.869038   21.826955   19.749864 H          1 MOL1         0.0783
      58    O14     17.534820   23.878421   19.730007 O.3        1 MOL1        -0.3740
      59    C18     16.165831   22.270002   18.526008 C.3        1 MOL1         0.0138
      60    H28     15.925957   21.199147   18.479687 H          1 MOL1         0.0794
      61    H29     16.770110   22.510820   17.641639 H          1 MOL1         0.0794
      62    O15     14.956761   23.040809   18.525096 O.3        1 MOL1        -0.5486
      63    H30     14.484909   22.853313   17.684869 H          1 MOL1         0.3769
      64    C19     23.329973   22.538203   21.962377 C.3        1 MOL1         0.2972
      65    H31     24.388921   22.596466   22.245515 H          1 MOL1         0.0751
      66    O16     22.983133   21.228434   21.472855 O.3        1 MOL1        -0.3740
      67    C20     22.438050   22.859530   23.184398 C.3        1 MOL1         0.1003
      68    H32     22.674156   23.884375   23.499215 H          1 MOL1         0.0783
      69    O17     22.701243   21.960922   24.274233 O.3        1 MOL1        -0.5519
      70    H33     23.404269   21.334901   23.972360 H          1 MOL1         0.3769
      71    C21     20.943147   22.809547   22.798310 C.3        1 MOL1         0.1053
      72    H34     20.691137   21.776984   22.533454 H          1 MOL1         0.0783
      73    O18     20.172759   23.215659   23.931394 O.3        1 MOL1        -0.5519
      74    H35     20.570875   22.722436   24.684572 H          1 MOL1         0.3769
      75    C22     20.642019   23.698880   21.564189 C.3        1 MOL1         0.1018
      76    H36     20.635579   24.752393   21.873597 H          1 MOL1         0.0783
      77    C23     21.672555   23.480941   20.418332 C.3        1 MOL1         0.1043
      78    H37     21.474869   22.498129   19.971642 H          1 MOL1         0.0783
      79    O19     23.031353   23.499110   20.927652 O.3        1 MOL1        -0.3740
      80    C24     21.555935   24.527800   19.285212 C.3        1 MOL1         0.0138
      81    H38     20.616587   24.349855   18.743973 H          1 MOL1         0.0794
      82    H39     22.377882   24.368974   18.574344 H          1 MOL1         0.0794
      83    O20     21.580707   25.870536   19.786023 O.3        1 MOL1        -0.5486
      84    H40     21.570373   26.476712   19.013423 H          1 MOL1         0.3769
      85    C25     24.884328   17.556907   20.798550 C.3        1 MOL1         0.2972
      86    H41     25.589173   16.772278   20.495243 H          1 MOL1         0.0751
      87    O21     23.598786   17.003246   21.141353 O.3        1 MOL1        -0.3740
      88    C26     25.439769   18.387763   21.990005 C.3        1 MOL1         0.1003
      89    H42     26.357979   18.873128   21.634248 H          1 MOL1         0.0783
      90    O22     25.771831   17.569557   23.121122 O.3        1 MOL1        -0.5519
      91    H43     24.927132   17.168865   23.448338 H          1 MOL1         0.3769
      92    C27     24.444538   19.506834   22.389563 C.3        1 MOL1         0.1053
      93    H44     23.521869   19.040403   22.764007 H          1 MOL1         0.0783
      94    O23     25.034686   20.316514   23.412117 O.3        1 MOL1        -0.5519
      95    H45     25.463530   19.678904   24.026619 H          1 MOL1         0.3769
      96    C28     24.092584   20.370837   21.150380 C.3        1 MOL1         0.1018
      97    H46     24.977761   20.953000   20.862527 H          1 MOL1         0.0783
      98    C29     23.657801   19.497489   19.944593 C.3        1 MOL1         0.1043
      99    H47     22.705072   19.015465   20.194557 H          1 MOL1         0.0783
     100    O24     24.665687   18.480458   19.705652 O.3        1 MOL1        -0.3740
     101    C30     23.419487   20.302430   18.641808 C.3        1 MOL1         0.0138
     102    H48     22.407443   20.724751   18.681317 H          1 MOL1         0.0794
     103    H49     23.444875   19.609620   17.790305 H          1 MOL1         0.0794
     104    O25     24.368405   21.359709   18.452375 O.3        1 MOL1        -0.5486
     105    H50     24.171972   22.049211   19.124910 H          1 MOL1         0.3769
     106    C31     21.279079   13.869651   22.184745 C.3        1 MOL1         0.2972
     107    H51     20.758455   12.953979   22.492843 H          1 MOL1         0.0751
     108    O26     20.386733   14.804830   21.545597 O.3        1 MOL1        -0.3740
     109    C32     21.933865   14.548596   23.411257 C.3        1 MOL1         0.1003
     110    H52     22.719480   13.874105   23.774887 H          1 MOL1         0.0783
     111    O27     20.976350   14.754115   24.464223 O.3        1 MOL1        -0.5519
     112    H53     20.403507   15.531118   24.226157 H          1 MOL1         0.3769
     113    C33     22.603730   15.873586   22.983329 C.3        1 MOL1         0.1053
     114    H54     21.802005   16.550700   22.677803 H          1 MOL1         0.0783
     115    O28     23.312231   16.455682   24.082213 O.3        1 MOL1        -0.5519
     116    H55     22.605596   16.881186   24.639620 H          1 MOL1         0.3769
     117    C34     23.549480   15.702816   21.764596 C.3        1 MOL1         0.1018
     118    H56     24.533868   15.370516   22.118920 H          1 MOL1         0.0783
     119    C35     23.007013   14.728250   20.675016 C.3        1 MOL1         0.1043
     120    H57     22.275325   15.285453   20.078756 H          1 MOL1         0.0783
     121    O29     22.343027   13.573937   21.255357 O.3        1 MOL1        -0.3740
     122    C36     24.095247   14.232263   19.693958 C.3        1 MOL1         0.0138
     123    H58     24.414147   15.078553   19.070720 H          1 MOL1         0.0794
     124    H59     23.649126   13.484481   19.024592 H          1 MOL1         0.0794
     125    O30     25.226032   13.677700   20.376989 O.3        1 MOL1        -0.5486
     126    H60     25.838136   13.318252   19.698070 H          1 MOL1         0.3769
     127    C1      18.382309   20.075237   17.269755 C.2        1 MOL1        -0.2535
     128    H1      17.656578   19.263959   17.282336 H          1 MOL1         0.0845
     129    H2      18.235286   20.868515   16.539445 H          1 MOL1         0.0845
     130    C2      19.418789   20.096801   18.111206 C.2        1 MOL1        -0.1324
     131    H3      20.131733   20.919376   18.082863 H          1 MOL1         0.0833
     132    C3      19.687201   19.026611   19.144746 C.3        1 MOL1        -0.1813
     133    H4      20.642958   18.535654   18.921221 H          1 MOL1         0.0753
     134    H5      18.910623   18.252659   19.092983 H          1 MOL1         0.0753
     135    C4      19.735821   19.606857   20.573702 C.3        1 MOL1        -0.1855
     136    H6      20.502611   20.388642   20.630016 H          1 MOL1         0.0755
     137    H7      18.775986   20.080459   20.810720 H          1 MOL1         0.0755
     138    C5      20.031630   18.511317   21.617334 C.3        1 MOL1        -0.1855
     139    H8      20.991126   18.037982   21.384138 H          1 MOL1         0.0755
     140    H9      19.269922   17.726021   21.544771 H          1 MOL1         0.0755
     141    C6      20.058178   19.059973   23.068254 C.3        1 MOL1        -0.1958
     142    H10     20.931279   19.707653   23.203350 H          1 MOL1         0.0753
     143    H11     19.166512   19.665460   23.267812 H          1 MOL1         0.0753
     144    C7      20.115953   17.969389   24.134623 C.2        1 MOL1         0.6174
     145    O1      19.282579   17.082825   24.099461 O.co2      1 MOL1        -0.6695
     146    O2      21.078502   17.947576   24.876842 O.co2      1 MOL1        -0.6695
@<TRIPOS>BOND
    1     1     2    1
    2     1     3    1
    3     1     4    1
    4     4     5    1
    5     4     6    1
    6     6     7    1
    7     4     8    1
    8     8     9    1
    9     8    10    1
   10    10    11    1
   11     8    12    1
   12    12    13    1
   13    12    14    1
   14    14    15    1
   15     1    16    1
   16    14    16    1
   17    14    17    1
   18    17    18    1
   19    17    19    1
   20    17    20    1
   21    20    21    1
   22    22    23    1
   23    22    24    1
   24    22    25    1
   25    25    26    1
   26    25    27    1
   27    27    28    1
   28    25    29    1
   29    29    30    1
   30    29    31    1
   31    31    32    1
   32     3    33    1
   33    29    33    1
   34    33    34    1
   35    33    35    1
   36    35    36    1
   37    22    37    1
   38    35    37    1
   39    35    38    1
   40    38    39    1
   41    38    40    1
   42    38    41    1
   43    41    42    1
   44    43    44    1
   45    43    45    1
   46    43    46    1
   47    46    47    1
   48    46    48    1
   49    48    49    1
   50    46    50    1
   51    50    51    1
   52    50    52    1
   53    52    53    1
   54    24    54    1
   55    50    54    1
   56    54    55    1
   57    54    56    1
   58    56    57    1
   59    43    58    1
   60    56    58    1
   61    56    59    1
   62    59    60    1
   63    59    61    1
   64    59    62    1
   65    62    63    1
   66    64    65    1
   67    64    66    1
   68    64    67    1
   69    67    68    1
   70    67    69    1
   71    69    70    1
   72    67    71    1
   73    71    72    1
   74    71    73    1
   75    73    74    1
   76    45    75    1
   77    71    75    1
   78    75    76    1
   79    75    77    1
   80    77    78    1
   81    64    79    1
   82    77    79    1
   83    77    80    1
   84    80    81    1
   85    80    82    1
   86    80    83    1
   87    83    84    1
   88    85    86    1
   89    85    87    1
   90    85    88    1
   91    88    89    1
   92    88    90    1
   93    90    91    1
   94    88    92    1
   95    92    93    1
   96    92    94    1
   97    94    95    1
   98    66    96    1
   99    92    96    1
  100    96    97    1
  101    96    98    1
  102    98    99    1
  103    85   100    1
  104    98   100    1
  105    98   101    1
  106   101   102    1
  107   101   103    1
  108   101   104    1
  109   104   105    1
  110   106   107    1
  111    12   108    1
  112   106   108    1
  113   106   109    1
  114   109   110    1
  115   109   111    1
  116   111   112    1
  117   109   113    1
  118   113   114    1
  119   113   115    1
  120   115   116    1
  121    87   117    1
  122   113   117    1
  123   117   118    1
  124   117   119    1
  125   119   120    1
  126   106   121    1
  127   119   121    1
  128   119   122    1
  129   122   123    1
  130   122   124    1
  131   122   125    1
  132   125   126    1
  133   127   128    1
  134   127   129    1
  135   127   130    2
  136   130   131    1
  137   130   132    1
  138   132   133    1
  139   132   134    1
  140   132   135    1
  141   135   136    1
  142   135   137    1
  143   135   138    1
  144   138   139    1
  145   138   140    1
  146   138   141    1
  147   141   142    1
  148   141   143    1
  149   141   144    1
  150   144   145    1
  151   144   146    2
@<TRIPOS>SUBSTRUCTURE
       1 MOL1            1 RESIDUE      1      MOL     
       2 MOL1          146 RESIDUE      1      MOL     
@<SCITEGIC>MOL_PROPERTY
feprocess Rank
SciTegic.value.IntegerValue
1

@<SCITEGIC>MOL_PROPERTY
Conf_Id
SciTegic.value.IntegerValue
641

@<SCITEGIC>MOL_PROPERTY
Probability
SciTegic.value.DoubleValue
47.21

@<SCITEGIC>MOL_PROPERTY
G
SciTegic.value.DoubleValue
500.820

@<SCITEGIC>MOL_PROPERTY
E
SciTegic.value.DoubleValue
312.438

@<SCITEGIC>MOL_PROPERTY
-TS
SciTegic.value.DoubleValue
188.382

@<SCITEGIC>MOL_PROPERTY
U+W
SciTegic.value.DoubleValue
183.667

@<SCITEGIC>MOL_PROPERTY
U
SciTegic.value.DoubleValue
258.085

@<SCITEGIC>MOL_PROPERTY
W
SciTegic.value.DoubleValue
-74.418

@<SCITEGIC>MOL_PROPERTY
W(PB)
SciTegic.value.DoubleValue
-80.436

@<SCITEGIC>MOL_PROPERTY
W(SA)
SciTegic.value.DoubleValue
6.018

@<SCITEGIC>MOL_PROPERTY
Valence
SciTegic.value.DoubleValue
154.870

@<SCITEGIC>MOL_PROPERTY
Coulomb
SciTegic.value.DoubleValue
129.247

@<SCITEGIC>MOL_PROPERTY
VdW
SciTegic.value.DoubleValue
-26.032

@<SCITEGIC>MOL_PROPERTY
VdW6
SciTegic.value.DoubleValue
-190.212

@<SCITEGIC>MOL_PROPERTY
VdW12
SciTegic.value.DoubleValue
164.180

@<SCITEGIC>MOL_PROPERTY
Bond
SciTegic.value.DoubleValue
5.208

@<SCITEGIC>MOL_PROPERTY
Angle
SciTegic.value.DoubleValue
15.552

@<SCITEGIC>MOL_PROPERTY
Pdih
SciTegic.value.DoubleValue
134.058

@<SCITEGIC>MOL_PROPERTY
Idih
SciTegic.value.DoubleValue
0.052

@<SCITEGIC>MOL_PROPERTY
Tether
SciTegic.value.DoubleValue
0.000

@<TRIPOS>MOLECULE
CD_guest-s22_fast_vm2_rndm.mol2 : feprocess host+ligand conformer 2
         146         151           2
SMALL
USER_CHARGES
 
@<TRIPOS>ATOM
       1    C1      16.098748   15.121264   20.908744 C.3        1 MOL1         0.2972
       2    H1      15.010622   15.016871   20.809588 H          1 MOL1         0.0751
       3    O1      16.478773   16.487494   21.180032 O.3        1 MOL1        -0.3740
       4    C2      16.654782   14.200882   22.025987 C.3        1 MOL1         0.1003
       5    H2      16.464925   13.165303   21.714946 H          1 MOL1         0.0783
       6    O2      16.003745   14.429992   23.284312 O.3        1 MOL1        -0.5519
       7    H3      16.173722   15.373868   23.532685 H          1 MOL1         0.3769
       8    C3      18.186858   14.383704   22.155778 C.3        1 MOL1         0.1053
       9    H4      18.380390   15.404830   22.508386 H          1 MOL1         0.0783
      10    O3      18.697637   13.441608   23.103485 O.3        1 MOL1        -0.5519
      11    H5      18.072508   13.477162   23.861719 H          1 MOL1         0.3769
      12    C4      18.898063   14.195068   20.789944 C.3        1 MOL1         0.1018
      13    H6      18.939828   13.120055   20.573376 H          1 MOL1         0.0783
      14    C5      18.178671   14.937632   19.625632 C.3        1 MOL1         0.1043
      15    H7      18.364194   16.010617   19.736427 H          1 MOL1         0.0783
      16    O4      16.747350   14.713706   19.684619 O.3        1 MOL1        -0.3740
      17    C6      18.686962   14.541934   18.218026 C.3        1 MOL1         0.0138
      18    H8      19.706908   14.929490   18.089211 H          1 MOL1         0.0794
      19    H9      18.055969   15.042251   17.471548 H          1 MOL1         0.0794
      20    O5      18.669100   13.125104   18.001617 O.3        1 MOL1        -0.5486
      21    H10     19.487568   12.751608   18.389446 H          1 MOL1         0.3769
      22    C7      15.154170   20.228250   22.269724 C.3        1 MOL1         0.2972
      23    H11     14.618498   21.121293   22.613897 H          1 MOL1         0.0751
      24    O6      16.402214   20.568455   21.628947 O.3        1 MOL1        -0.3740
      25    C8      15.453168   19.294574   23.469001 C.3        1 MOL1         0.1003
      26    H12     14.490626   18.944622   23.863497 H          1 MOL1         0.0783
      27    O7      16.143033   20.016753   24.502283 O.3        1 MOL1        -0.5519
      28    H13     16.945290   19.496931   24.760975 H          1 MOL1         0.3769
      29    C9      16.247195   18.056294   22.984093 C.3        1 MOL1         0.1053
      30    H14     17.200123   18.406293   22.580016 H          1 MOL1         0.0783
      31    O8      16.490259   17.153317   24.070662 O.3        1 MOL1        -0.5519
      32    H15     17.225039   17.555856   24.604728 H          1 MOL1         0.3769
      33    C10     15.505541   17.330993   21.831373 C.3        1 MOL1         0.1018
      34    H16     14.671620   16.754292   22.252908 H          1 MOL1         0.0783
      35    C11     14.988467   18.314486   20.740485 C.3        1 MOL1         0.1043
      36    H17     15.858705   18.643949   20.162082 H          1 MOL1         0.0783
      37    O9      14.353101   19.480262   21.328398 O.3        1 MOL1        -0.3740
      38    C12     14.000568   17.664706   19.742711 C.3        1 MOL1         0.0138
      39    H18     14.557027   16.957605   19.112572 H          1 MOL1         0.0794
      40    H19     13.603107   18.446797   19.082009 H          1 MOL1         0.0794
      41    O10     12.930612   16.983443   20.409456 O.3        1 MOL1        -0.5486
      42    H20     12.306437   16.663734   19.721858 H          1 MOL1         0.3769
      43    C13     18.564388   23.844447   20.313160 C.3        1 MOL1         0.2972
      44    H21     18.935481   24.753892   19.823230 H          1 MOL1         0.0751
      45    O11     19.628481   23.105806   20.944707 O.3        1 MOL1        -0.3740
      46    C14     17.513950   24.187810   21.397474 C.3        1 MOL1         0.1003
      47    H22     16.687795   24.705669   20.893073 H          1 MOL1         0.0783
      48    O12     18.069113   25.056481   22.398876 O.3        1 MOL1        -0.5519
      49    H23     18.915703   24.646410   22.710425 H          1 MOL1         0.3769
      50    C15     16.938946   22.904885   22.052285 C.3        1 MOL1         0.1053
      51    H24     17.727655   22.448333   22.666579 H          1 MOL1         0.0783
      52    O13     15.834207   23.286279   22.878145 O.3        1 MOL1        -0.5519
      53    H25     16.171317   24.019179   23.438518 H          1 MOL1         0.3769
      54    C16     16.487463   21.858157   20.992936 C.3        1 MOL1         0.1018
      55    H26     15.519942   22.167181   20.577810 H          1 MOL1         0.0783
      56    C17     17.518352   21.690710   19.840914 C.3        1 MOL1         0.1043
      57    H27     18.397815   21.174100   20.243686 H          1 MOL1         0.0783
      58    O14     17.920900   22.988856   19.346203 O.3        1 MOL1        -0.3740
      59    C18     17.012330   20.838849   18.649122 C.3        1 MOL1         0.0138
      60    H28     17.180232   19.781129   18.885576 H          1 MOL1         0.0794
      61    H29     17.630998   21.065110   17.770464 H          1 MOL1         0.0794
      62    O15     15.627155   21.054109   18.348015 O.3        1 MOL1        -0.5486
      63    H30     15.107163   20.738504   19.118785 H          1 MOL1         0.3769
      64    C19     23.688908   22.934076   21.474351 C.3        1 MOL1         0.2972
      65    H31     24.775540   23.068604   21.550901 H          1 MOL1         0.0751
      66    O16     23.321209   21.537520   21.511764 O.3        1 MOL1        -0.3740
      67    C20     22.944552   23.697494   22.600160 C.3        1 MOL1         0.1003
      68    H32     23.121799   24.768419   22.435884 H          1 MOL1         0.0783
      69    O17     23.431876   23.346421   23.903255 O.3        1 MOL1        -0.5519
      70    H33     23.275580   22.375085   24.021917 H          1 MOL1         0.3769
      71    C21     21.421261   23.447436   22.489848 C.3        1 MOL1         0.1053
      72    H34     21.234474   22.384297   22.688841 H          1 MOL1         0.0783
      73    O18     20.730789   24.247405   23.455836 O.3        1 MOL1        -0.5519
      74    H35     21.230601   24.125166   24.293582 H          1 MOL1         0.3769
      75    C22     20.896080   23.777729   21.068864 C.3        1 MOL1         0.1018
      76    H36     20.790837   24.867896   20.990137 H          1 MOL1         0.0783
      77    C23     21.813726   23.246559   19.926917 C.3        1 MOL1         0.1043
      78    H37     21.658528   22.165751   19.838940 H          1 MOL1         0.0783
      79    O19     23.211151   23.487694   20.230073 O.3        1 MOL1        -0.3740
      80    C24     21.496605   23.857451   18.541129 C.3        1 MOL1         0.0138
      81    H38     20.537488   23.450477   18.192942 H          1 MOL1         0.0794
      82    H39     22.266199   23.528661   17.830011 H          1 MOL1         0.0794
      83    O20     21.433113   25.288837   18.580908 O.3        1 MOL1        -0.5486
      84    H40     21.303320   25.606644   17.660759 H          1 MOL1         0.3769
      85    C25     24.658585   17.717647   22.359420 C.3        1 MOL1         0.2972
      86    H41     25.215418   16.827103   22.676157 H          1 MOL1         0.0751
      87    O21     23.545083   17.373610   21.508243 O.3        1 MOL1        -0.3740
      88    C26     24.125478   18.491909   23.593242 C.3        1 MOL1         0.1003
      89    H42     24.996144   18.796131   24.188202 H          1 MOL1         0.0783
      90    O22     23.277233   17.656768   24.396031 O.3        1 MOL1        -0.5519
      91    H43     23.469101   16.721611   24.149490 H          1 MOL1         0.3769
      92    C27     23.373771   19.772279   23.152276 C.3        1 MOL1         0.1053
      93    H44     22.473998   19.462406   22.612722 H          1 MOL1         0.0783
      94    O23     23.005244   20.545398   24.300679 O.3        1 MOL1        -0.5519
      95    H45     22.300442   20.023590   24.773316 H          1 MOL1         0.3769
      96    C28     24.224636   20.633745   22.182577 C.3        1 MOL1         0.1018
      97    H46     24.986465   21.168758   22.764868 H          1 MOL1         0.0783
      98    C29     24.901441   19.786488   21.067533 C.3        1 MOL1         0.1043
      99    H47     24.122868   19.472720   20.360018 H          1 MOL1         0.0783
     100    O24     25.528925   18.606889   21.628984 O.3        1 MOL1        -0.3740
     101    C30     25.962771   20.570748   20.259186 C.3        1 MOL1         0.0138
     102    H48     25.445849   21.313881   19.636863 H          1 MOL1         0.0794
     103    H49     26.471311   19.873522   19.579972 H          1 MOL1         0.0794
     104    O25     26.915232   21.225767   21.106831 O.3        1 MOL1        -0.5486
     105    H50     27.593822   21.638230   20.528970 H          1 MOL1         0.3769
     106    C31     21.337026   13.954431   20.545392 C.3        1 MOL1         0.2972
     107    H51     21.019682   12.970378   20.179375 H          1 MOL1         0.0751
     108    O26     20.212590   14.773990   20.925767 O.3        1 MOL1        -0.3740
     109    C32     22.260563   13.798239   21.778903 C.3        1 MOL1         0.1003
     110    H52     23.139698   13.226405   21.454201 H          1 MOL1         0.0783
     111    O27     21.604705   13.078757   22.834722 O.3        1 MOL1        -0.5519
     112    H53     20.669591   13.403328   22.881763 H          1 MOL1         0.3769
     113    C33     22.756479   15.176584   22.282174 C.3        1 MOL1         0.1053
     114    H54     21.890201   15.737575   22.658882 H          1 MOL1         0.0783
     115    O28     23.693587   14.953117   23.341579 O.3        1 MOL1        -0.5519
     116    H55     23.307773   14.211795   23.862658 H          1 MOL1         0.3769
     117    C34     23.402448   15.989833   21.123516 C.3        1 MOL1         0.1018
     118    H56     24.374741   15.547868   20.871555 H          1 MOL1         0.0783
     119    C35     22.499868   15.995726   19.858559 C.3        1 MOL1         0.1043
     120    H57     21.611420   16.591043   20.085851 H          1 MOL1         0.0783
     121    O29     22.088769   14.646546   19.525553 O.3        1 MOL1        -0.3740
     122    C36     23.160124   16.644145   18.617062 C.3        1 MOL1         0.0138
     123    H58     23.166866   17.733627   18.756518 H          1 MOL1         0.0794
     124    H59     22.532562   16.437136   17.740127 H          1 MOL1         0.0794
     125    O30     24.495872   16.176450   18.392520 O.3        1 MOL1        -0.5486
     126    H60     25.062121   16.564572   19.093686 H          1 MOL1         0.3769
     127    C1      19.767190   18.888333   17.896321 C.2        1 MOL1        -0.2535
     128    H1      19.074319   18.136063   18.265500 H          1 MOL1         0.0845
     129    H2      19.773042   19.065843   16.822627 H          1 MOL1         0.0845
     130    C2      20.581561   19.574726   18.705810 C.2        1 MOL1        -0.1324
     131    H3      21.254385   20.315020   18.275274 H          1 MOL1         0.0833
     132    C3      20.689114   19.438342   20.214798 C.3        1 MOL1        -0.1813
     133    H4      20.587017   20.428796   20.671737 H          1 MOL1         0.0753
     134    H5      21.702355   19.103008   20.463319 H          1 MOL1         0.0753
     135    C4      19.659868   18.483844   20.861180 C.3        1 MOL1        -0.1855
     136    H6      18.641206   18.852307   20.687068 H          1 MOL1         0.0755
     137    H7      19.723455   17.507968   20.375819 H          1 MOL1         0.0755
     138    C5      19.887536   18.276559   22.373787 C.3        1 MOL1        -0.1855
     139    H8      20.902286   17.902934   22.557154 H          1 MOL1         0.0755
     140    H9      19.215975   17.483968   22.723783 H          1 MOL1         0.0755
     141    C6      19.637474   19.557097   23.211892 C.3        1 MOL1        -0.1958
     142    H10     20.419835   20.298452   23.029243 H          1 MOL1         0.0753
     143    H11     18.691617   20.028832   22.928662 H          1 MOL1         0.0753
     144    C7      19.582599   19.272595   24.707075 C.2        1 MOL1         0.6174
     145    O1      20.543627   19.585781   25.382809 O.co2      1 MOL1        -0.6695
     146    O2      18.572862   18.744423   25.140591 O.co2      1 MOL1        -0.6695
@<TRIPOS>BOND
    1     1     2    1
    2     1     3    1
    3     1     4    1
    4     4     5    1
    5     4     6    1
    6     6     7    1
    7     4     8    1
    8     8     9    1
    9     8    10    1
   10    10    11    1
   11     8    12    1
   12    12    13    1
   13    12    14    1
   14    14    15    1
   15     1    16    1
   16    14    16    1
   17    14    17    1
   18    17    18    1
   19    17    19    1
   20    17    20    1
   21    20    21    1
   22    22    23    1
   23    22    24    1
   24    22    25    1
   25    25    26    1
   26    25    27    1
   27    27    28    1
   28    25    29    1
   29    29    30    1
   30    29    31    1
   31    31    32    1
   32     3    33    1
   33    29    33    1
   34    33    34    1
   35    33    35    1
   36    35    36    1
   37    22    37    1
   38    35    37    1
   39    35    38    1
   40    38    39    1
   41    38    40    1
   42    38    41    1
   43    41    42    1
   44    43    44    1
   45    43    45    1
   46    43    46    1
   47    46    47    1
   48    46    48    1
   49    48    49    1
   50    46    50    1
   51    50    51    1
   52    50    52    1
   53    52    53    1
   54    24    54    1
   55    50    54    1
   56    54    55    1
   57    54    56    1
   58    56    57    1
   59    43    58    1
   60    56    58    1
   61    56    59    1
   62    59    60    1
   63    59    61    1
   64    59    62    1
   65    62    63    1
   66    64    65    1
   67    64    66    1
   68    64    67    1
   69    67    68    1
   70    67    69    1
   71    69    70    1
   72    67    71    1
   73    71    72    1
   74    71    73    1
   75    73    74    1
   76    45    75    1
   77    71    75    1
   78    75    76    1
   79    75    77    1
   80    77    78    1
   81    64    79    1
   82    77    79    1
   83    77    80    1
   84    80    81    1
   85    80    82    1
   86    80    83    1
   87    83    84    1
   88    85    86    1
   89    85    87    1
   90    85    88    1
   91    88    89    1
   92    88    90    1
   93    90    91    1
   94    88    92    1
   95    92    93    1
   96    92    94    1
   97    94    95    1
   98    66    96    1
   99    92    96    1
  100    96    97    1
  101    96    98    1
  102    98    99    1
  103    85   100    1
  104    98   100    1
  105    98   101    1
  106   101   102    1
  107   101   103    1
  108   101   104    1
  109   104   105    1
  110   106   107    1
  111    12   108    1
  112   106   108    1
  113   106   109    1
  114   109   110    1
  115   109   111    1
  116   111   112    1
  117   109   113    1
  118   113   114    1
  119   113   115    1
  120   115   116    1
  121    87   117    1
  122   113   117    1
  123   117   118    1
  124   117   119    1
  125   119   120    1
  126   106   121    1
  127   119   121    1
  128   119   122    1
  129   122   123    1
  130   122   124    1
  131   122   125    1
  132   125   126    1
  133   127   128    1
  134   127   129    1
  135   127   130    2
  136   130   131    1
  137   130   132    1
  138   132   133    1
  139   132   134    1
  140   132   135    1
  141   135   136    1
  142   135   137    1
  143   135   138    1
  144   138   139    1
  145   138   140    1
  146   138   141    1
  147   141   142    1
  148   141   143    1
  149   141   144    1
  150   144   145    1
  151   144   146    2
@<TRIPOS>SUBSTRUCTURE
       1 MOL1            1 RESIDUE      1      MOL     
       2 MOL1          146 RESIDUE      1      MOL     
@<SCITEGIC>MOL_PROPERTY
feprocess Rank
SciTegic.value.IntegerValue
2

@<SCITEGIC>MOL_PROPERTY
Conf_Id
SciTegic.value.IntegerValue
24

@<SCITEGIC>MOL_PROPERTY
Probability
SciTegic.value.DoubleValue
12.00

@<SCITEGIC>MOL_PROPERTY
G
SciTegic.value.DoubleValue
501.637

@<SCITEGIC>MOL_PROPERTY
E
SciTegic.value.DoubleValue
311.980

@<SCITEGIC>MOL_PROPERTY
-TS
SciTegic.value.DoubleValue
189.657

@<SCITEGIC>MOL_PROPERTY
U+W
SciTegic.value.DoubleValue
183.209

@<SCITEGIC>MOL_PROPERTY
U
SciTegic.value.DoubleValue
260.884

@<SCITEGIC>MOL_PROPERTY
W
SciTegic.value.DoubleValue
-77.676

@<SCITEGIC>MOL_PROPERTY
W(PB)
SciTegic.value.DoubleValue
-83.679

@<SCITEGIC>MOL_PROPERTY
W(SA)
SciTegic.value.DoubleValue
6.003

@<SCITEGIC>MOL_PROPERTY
Valence
SciTegic.value.DoubleValue
152.836

@<SCITEGIC>MOL_PROPERTY
Coulomb
SciTegic.value.DoubleValue
133.356

@<SCITEGIC>MOL_PROPERTY
VdW
SciTegic.value.DoubleValue
-25.307

@<SCITEGIC>MOL_PROPERTY
VdW6
SciTegic.value.DoubleValue
-189.532

@<SCITEGIC>MOL_PROPERTY
VdW12
SciTegic.value.DoubleValue
164.226

@<SCITEGIC>MOL_PROPERTY
Bond
SciTegic.value.DoubleValue
5.241

@<SCITEGIC>MOL_PROPERTY
Angle
SciTegic.value.DoubleValue
15.152

@<SCITEGIC>MOL_PROPERTY
Pdih
SciTegic.value.DoubleValue
132.443

@<SCITEGIC>MOL_PROPERTY
Idih
SciTegic.value.DoubleValue
0.000

@<SCITEGIC>MOL_PROPERTY
Tether
SciTegic.value.DoubleValue
0.000

@<TRIPOS>MOLECULE
CD_guest-s22_fast_vm2_rndm.mol2 : feprocess host+ligand conformer 3
         146         151           2
SMALL
USER_CHARGES
 
@<TRIPOS>ATOM
       1    C1      16.191993   15.327387   22.000587 C.3        1 MOL1         0.2972
       2    H1      15.136086   15.198294   22.271204 H          1 MOL1         0.0751
       3    O1      16.465742   16.685978   21.602720 O.3        1 MOL1        -0.3740
       4    C2      17.089563   14.949108   23.207057 C.3        1 MOL1         0.1003
       5    H2      16.930173   13.882967   23.413363 H          1 MOL1         0.0783
       6    O2      16.710128   15.708488   24.365760 O.3        1 MOL1        -0.5519
       7    H3      17.534652   15.966965   24.849758 H          1 MOL1         0.3769
       8    C3      18.583386   15.141480   22.852492 C.3        1 MOL1         0.1053
       9    H4      18.758008   16.214298   22.706089 H          1 MOL1         0.0783
      10    O3      19.420113   14.651197   23.909352 O.3        1 MOL1        -0.5519
      11    H5      19.382324   15.329272   24.634317 H          1 MOL1         0.3769
      12    C4      18.950493   14.410355   21.536190 C.3        1 MOL1         0.1018
      13    H6      19.063032   13.338064   21.744084 H          1 MOL1         0.0783
      14    C5      17.909675   14.632737   20.402326 C.3        1 MOL1         0.1043
      15    H7      18.041775   15.660918   20.045989 H          1 MOL1         0.0783
      16    O4      16.552248   14.472217   20.893994 O.3        1 MOL1        -0.3740
      17    C6      18.105621   13.699860   19.183351 C.3        1 MOL1         0.0138
      18    H8      19.016665   14.007097   18.652259 H          1 MOL1         0.0794
      19    H9      17.263864   13.841690   18.492337 H          1 MOL1         0.0794
      20    O5      18.207409   12.323594   19.568282 O.3        1 MOL1        -0.5486
      21    H10     18.243558   11.785770   18.747391 H          1 MOL1         0.3769
      22    C7      14.823579   20.207905   20.290338 C.3        1 MOL1         0.2972
      23    H11     14.257900   21.038687   19.849633 H          1 MOL1         0.0751
      24    O6      16.136076   20.631841   20.717480 O.3        1 MOL1        -0.3740
      25    C8      14.053585   19.569558   21.475770 C.3        1 MOL1         0.1003
      26    H12     13.122610   19.158927   21.063616 H          1 MOL1         0.0783
      27    O7      13.722226   20.531054   22.488935 O.3        1 MOL1        -0.5519
      28    H13     14.578421   20.824988   22.890713 H          1 MOL1         0.3769
      29    C9      14.855855   18.395307   22.086883 C.3        1 MOL1         0.1053
      30    H14     15.732537   18.809869   22.603840 H          1 MOL1         0.0783
      31    O8      14.016339   17.708383   23.020845 O.3        1 MOL1        -0.5519
      32    H15     13.666859   18.403251   23.619615 H          1 MOL1         0.3769
      33    C10     15.363656   17.400017   21.008418 C.3        1 MOL1         0.1018
      34    H16     14.534553   16.731137   20.744578 H          1 MOL1         0.0783
      35    C11     15.898194   18.089713   19.716285 C.3        1 MOL1         0.1043
      36    H17     16.879070   18.520827   19.940111 H          1 MOL1         0.0783
      37    O9      15.000312   19.155581   19.317178 O.3        1 MOL1        -0.3740
      38    C12     16.114090   17.144192   18.504306 C.3        1 MOL1         0.0138
      39    H18     17.167132   16.837811   18.486905 H          1 MOL1         0.0794
      40    H19     15.944541   17.715475   17.581875 H          1 MOL1         0.0794
      41    O10     15.272363   15.983822   18.521509 O.3        1 MOL1        -0.5486
      42    H20     15.559463   15.424180   19.280449 H          1 MOL1         0.3769
      43    C13     18.483786   23.820099   21.859935 C.3        1 MOL1         0.2972
      44    H21     18.901198   24.781233   22.186456 H          1 MOL1         0.0751
      45    O11     19.513252   22.918275   21.409027 O.3        1 MOL1        -0.3740
      46    C14     17.708941   23.151428   23.022046 C.3        1 MOL1         0.1003
      47    H22     16.886768   23.826174   23.293874 H          1 MOL1         0.0783
      48    O12     18.550475   22.949060   24.168953 O.3        1 MOL1        -0.5519
      49    H23     19.413827   23.389089   23.976467 H          1 MOL1         0.3769
      50    C15     17.097311   21.806866   22.569717 C.3        1 MOL1         0.1053
      51    H24     17.922891   21.108285   22.378308 H          1 MOL1         0.0783
      52    O13     16.270222   21.302418   23.623107 O.3        1 MOL1        -0.5519
      53    H25     16.822789   21.393497   24.431801 H          1 MOL1         0.3769
      54    C16     16.276209   21.958266   21.262423 C.3        1 MOL1         0.1018
      55    H26     15.306366   22.412799   21.502565 H          1 MOL1         0.0783
      56    C17     17.006885   22.811490   20.185783 C.3        1 MOL1         0.1043
      57    H27     17.827046   22.208598   19.777688 H          1 MOL1         0.0783
      58    O14     17.557254   24.018700   20.772028 O.3        1 MOL1        -0.3740
      59    C18     16.102987   23.210735   18.995059 C.3        1 MOL1         0.0138
      60    H28     15.895981   22.311470   18.399276 H          1 MOL1         0.0794
      61    H29     16.658291   23.906726   18.352107 H          1 MOL1         0.0794
      62    O15     14.870780   23.803506   19.424292 O.3        1 MOL1        -0.5486
      63    H30     14.388227   24.101843   18.622609 H          1 MOL1         0.3769
      64    C19     23.671004   22.745015   21.234656 C.3        1 MOL1         0.2972
      65    H31     24.737126   22.943103   21.064586 H          1 MOL1         0.0751
      66    O16     23.431070   21.380714   21.621273 O.3        1 MOL1        -0.3740
      67    C20     23.112010   23.642139   22.367324 C.3        1 MOL1         0.1003
      68    H32     23.236315   24.686183   22.051723 H          1 MOL1         0.0783
      69    O17     23.830692   23.430599   23.593590 O.3        1 MOL1        -0.5519
      70    H33     23.923155   22.451697   23.716859 H          1 MOL1         0.3769
      71    C21     21.598583   23.381255   22.577147 C.3        1 MOL1         0.1053
      72    H34     21.475781   22.360682   22.965597 H          1 MOL1         0.0783
      73    O18     21.094530   24.324664   23.528658 O.3        1 MOL1        -0.5519
      74    H35     21.785658   24.370691   24.227995 H          1 MOL1         0.3769
      75    C22     20.824023   23.486453   21.234845 C.3        1 MOL1         0.1018
      76    H36     20.767867   24.541099   20.936357 H          1 MOL1         0.0783
      77    C23     21.505256   22.675155   20.099395 C.3        1 MOL1         0.1043
      78    H37     21.401028   21.605876   20.326384 H          1 MOL1         0.0783
      79    O19     22.911107   23.016277   20.037299 O.3        1 MOL1        -0.3740
      80    C24     20.876486   22.905322   18.701627 C.3        1 MOL1         0.0138
      81    H38     19.933896   22.346530   18.644707 H          1 MOL1         0.0794
      82    H39     21.547630   22.480384   17.943572 H          1 MOL1         0.0794
      83    O20     20.628475   24.288667   18.422048 O.3        1 MOL1        -0.5486
      84    H40     19.862464   24.564508   18.970613 H          1 MOL1         0.3769
      85    C25     25.069989   17.637974   21.897744 C.3        1 MOL1         0.2972
      86    H41     25.695043   16.738801   21.975017 H          1 MOL1         0.0751
      87    O21     23.679823   17.304376   21.725806 O.3        1 MOL1        -0.3740
      88    C26     25.203044   18.481555   23.186808 C.3        1 MOL1         0.1003
      89    H42     26.250821   18.796986   23.274756 H          1 MOL1         0.0783
      90    O22     24.841002   17.697184   24.334216 O.3        1 MOL1        -0.5519
      91    H43     24.246398   16.979480   24.008085 H          1 MOL1         0.3769
      92    C27     24.323134   19.748232   23.096389 C.3        1 MOL1         0.1053
      93    H44     23.274379   19.428604   23.097692 H          1 MOL1         0.0783
      94    O23     24.568970   20.588792   24.228573 O.3        1 MOL1        -0.5519
      95    H45     24.541823   19.983455   25.002828 H          1 MOL1         0.3769
      96    C28     24.581987   20.535854   21.789197 C.3        1 MOL1         0.1018
      97    H46     25.510032   21.111192   21.904372 H          1 MOL1         0.0783
      98    C29     24.658485   19.627342   20.529548 C.3        1 MOL1         0.1043
      99    H47     23.635271   19.308359   20.297741 H          1 MOL1         0.0783
     100    O24     25.475743   18.453851   20.779535 O.3        1 MOL1        -0.3740
     101    C30     25.208107   20.349130   19.276198 C.3        1 MOL1         0.0138
     102    H48     24.458341   21.074970   18.934021 H          1 MOL1         0.0794
     103    H49     25.335541   19.610869   18.473052 H          1 MOL1         0.0794
     104    O25     26.447715   21.017880   19.540232 O.3        1 MOL1        -0.5486
     105    H50     26.765583   21.400894   18.693706 H          1 MOL1         0.3769
     106    C31     21.217889   14.137189   20.604551 C.3        1 MOL1         0.2972
     107    H51     20.802005   13.213965   20.181345 H          1 MOL1         0.0751
     108    O26     20.180599   15.010727   21.089799 O.3        1 MOL1        -0.3740
     109    C32     22.213774   13.831199   21.757630 C.3        1 MOL1         0.1003
     110    H52     23.031364   13.238032   21.327882 H          1 MOL1         0.0783
     111    O27     21.598577   13.075588   22.811917 O.3        1 MOL1        -0.5519
     112    H53     20.855974   13.626206   23.168758 H          1 MOL1         0.3769
     113    C33     22.820583   15.142683   22.314168 C.3        1 MOL1         0.1053
     114    H54     22.015442   15.714753   22.793540 H          1 MOL1         0.0783
     115    O28     23.835735   14.837270   23.276267 O.3        1 MOL1        -0.5519
     116    H55     23.449623   14.132969   23.842988 H          1 MOL1         0.3769
     117    C34     23.415783   16.004030   21.172872 C.3        1 MOL1         0.1018
     118    H56     24.329718   15.517813   20.806958 H          1 MOL1         0.0783
     119    C35     22.424699   16.176022   19.989176 C.3        1 MOL1         0.1043
     120    H57     21.582163   16.789070   20.333710 H          1 MOL1         0.0783
     121    O29     21.944449   14.866797   19.590287 O.3        1 MOL1        -0.3740
     122    C36     23.012044   16.886535   18.741437 C.3        1 MOL1         0.0138
     123    H58     22.812899   17.961663   18.828224 H          1 MOL1         0.0794
     124    H59     22.465783   16.540044   17.854071 H          1 MOL1         0.0794
     125    O30     24.417886   16.666914   18.568357 O.3        1 MOL1        -0.5486
     126    H60     24.881670   17.178262   19.272068 H          1 MOL1         0.3769
     127    C1      19.809665   18.720912   18.639322 C.2        1 MOL1        -0.2535
     128    H1      20.013373   17.651877   18.642843 H          1 MOL1         0.0845
     129    H2      19.868828   19.239786   17.684572 H          1 MOL1         0.0845
     130    C2      19.490764   19.373103   19.759992 C.2        1 MOL1        -0.1324
     131    H3      19.277817   20.438741   19.737381 H          1 MOL1         0.0833
     132    C3      19.381585   18.724806   21.119757 C.3        1 MOL1        -0.1813
     133    H4      19.468905   17.636065   21.027808 H          1 MOL1         0.0753
     134    H5      18.388637   18.928915   21.536107 H          1 MOL1         0.0753
     135    C4      20.460888   19.254847   22.087281 C.3        1 MOL1        -0.1855
     136    H6      21.446319   19.130854   21.620166 H          1 MOL1         0.0755
     137    H7      20.320655   20.332201   22.242885 H          1 MOL1         0.0755
     138    C5      20.459856   18.530807   23.454359 C.3        1 MOL1        -0.1855
     139    H8      21.302370   18.896179   24.055491 H          1 MOL1         0.0755
     140    H9      20.634981   17.459204   23.300134 H          1 MOL1         0.0755
     141    C6      19.155328   18.731574   24.270242 C.3        1 MOL1        -0.1958
     142    H10     18.989536   19.799238   24.457725 H          1 MOL1         0.0753
     143    H11     18.283944   18.360064   23.720201 H          1 MOL1         0.0753
     144    C7      19.186849   18.006482   25.611536 C.2        1 MOL1         0.6174
     145    O1      18.984235   16.805707   25.612015 O.co2      1 MOL1        -0.6695
     146    O2      19.432427   18.652614   26.610849 O.co2      1 MOL1        -0.6695
@<TRIPOS>BOND
    1     1     2    1
    2     1     3    1
    3     1     4    1
    4     4     5    1
    5     4     6    1
    6     6     7    1
    7     4     8    1
    8     8     9    1
    9     8    10    1
   10    10    11    1
   11     8    12    1
   12    12    13    1
   13    12    14    1
   14    14    15    1
   15     1    16    1
   16    14    16    1
   17    14    17    1
   18    17    18    1
   19    17    19    1
   20    17    20    1
   21    20    21    1
   22    22    23    1
   23    22    24    1
   24    22    25    1
   25    25    26    1
   26    25    27    1
   27    27    28    1
   28    25    29    1
   29    29    30    1
   30    29    31    1
   31    31    32    1
   32     3    33    1
   33    29    33    1
   34    33    34    1
   35    33    35    1
   36    35    36    1
   37    22    37    1
   38    35    37    1
   39    35    38    1
   40    38    39    1
   41    38    40    1
   42    38    41    1
   43    41    42    1
   44    43    44    1
   45    43    45    1
   46    43    46    1
   47    46    47    1
   48    46    48    1
   49    48    49    1
   50    46    50    1
   51    50    51    1
   52    50    52    1
   53    52    53    1
   54    24    54    1
   55    50    54    1
   56    54    55    1
   57    54    56    1
   58    56    57    1
   59    43    58    1
   60    56    58    1
   61    56    59    1
   62    59    60    1
   63    59    61    1
   64    59    62    1
   65    62    63    1
   66    64    65    1
   67    64    66    1
   68    64    67    1
   69    67    68    1
   70    67    69    1
   71    69    70    1
   72    67    71    1
   73    71    72    1
   74    71    73    1
   75    73    74    1
   76    45    75    1
   77    71    75    1
   78    75    76    1
   79    75    77    1
   80    77    78    1
   81    64    79    1
   82    77    79    1
   83    77    80    1
   84    80    81    1
   85    80    82    1
   86    80    83    1
   87    83    84    1
   88    85    86    1
   89    85    87    1
   90    85    88    1
   91    88    89    1
   92    88    90    1
   93    90    91    1
   94    88    92    1
   95    92    93    1
   96    92    94    1
   97    94    95    1
   98    66    96    1
   99    92    96    1
  100    96    97    1
  101    96    98    1
  102    98    99    1
  103    85   100    1
  104    98   100    1
  105    98   101    1
  106   101   102    1
  107   101   103    1
  108   101   104    1
  109   104   105    1
  110   106   107    1
  111    12   108    1
  112   106   108    1
  113   106   109    1
  114   109   110    1
  115   109   111    1
  116   111   112    1
  117   109   113    1
  118   113   114    1
  119   113   115    1
  120   115   116    1
  121    87   117    1
  122   113   117    1
  123   117   118    1
  124   117   119    1
  125   119   120    1
  126   106   121    1
  127   119   121    1
  128   119   122    1
  129   122   123    1
  130   122   124    1
  131   122   125    1
  132   125   126    1
  133   127   128    1
  134   127   129    1
  135   127   130    2
  136   130   131    1
  137   130   132    1
  138   132   133    1
  139   132   134    1
  140   132   135    1
  141   135   136    1
  142   135   137    1
  143   135   138    1
  144   138   139    1
  145   138   140    1
  146   138   141    1
  147   141   142    1
  148   141   143    1
  149   141   144    1
  150   144   145    1
  151   144   146    2
@<TRIPOS>SUBSTRUCTURE
       1 MOL1            1 RESIDUE      1      MOL     
       2 MOL1          146 RESIDUE      1      MOL     
@<SCITEGIC>MOL_PROPERTY
feprocess Rank
SciTegic.value.IntegerValue
3

@<SCITEGIC>MOL_PROPERTY
Conf_Id
SciTegic.value.IntegerValue
582

@<SCITEGIC>MOL_PROPERTY
Probability
SciTegic.value.DoubleValue
11.28

@<SCITEGIC>MOL_PROPERTY
G
SciTegic.value.DoubleValue
501.673

@<SCITEGIC>MOL_PROPERTY
E
SciTegic.value.DoubleValue
314.269

@<SCITEGIC>MOL_PROPERTY
-TS
SciTegic.value.DoubleValue
187.404

@<SCITEGIC>MOL_PROPERTY
U+W
SciTegic.value.DoubleValue
185.498

@<SCITEGIC>MOL_PROPERTY
U
SciTegic.value.DoubleValue
264.069

@<SCITEGIC>MOL_PROPERTY
W
SciTegic.value.DoubleValue
-78.571

@<SCITEGIC>MOL_PROPERTY
W(PB)
SciTegic.value.DoubleValue
-84.568

@<SCITEGIC>MOL_PROPERTY
W(SA)
SciTegic.value.DoubleValue
5.998

@<SCITEGIC>MOL_PROPERTY
Valence
SciTegic.value.DoubleValue
154.719

@<SCITEGIC>MOL_PROPERTY
Coulomb
SciTegic.value.DoubleValue
135.864

@<SCITEGIC>MOL_PROPERTY
VdW
SciTegic.value.DoubleValue
-26.514

@<SCITEGIC>MOL_PROPERTY
VdW6
SciTegic.value.DoubleValue
-186.221

@<SCITEGIC>MOL_PROPERTY
VdW12
SciTegic.value.DoubleValue
159.707

@<SCITEGIC>MOL_PROPERTY
Bond
SciTegic.value.DoubleValue
4.831

@<SCITEGIC>MOL_PROPERTY
Angle
SciTegic.value.DoubleValue
14.226

@<SCITEGIC>MOL_PROPERTY
Pdih
SciTegic.value.DoubleValue
135.661

@<SCITEGIC>MOL_PROPERTY
Idih
SciTegic.value.DoubleValue
0.001

@<SCITEGIC>MOL_PROPERTY
Tether
SciTegic.value.DoubleValue
0.000

@<TRIPOS>MOLECULE
CD_guest-s22_fast_vm2_rndm.mol2 : feprocess host+ligand conformer 4
         146         151           2
SMALL
USER_CHARGES
 
@<TRIPOS>ATOM
       1    C1      16.215347   15.202916   20.738204 C.3        1 MOL1         0.2972
       2    H1      15.211750   14.929808   20.389321 H          1 MOL1         0.0751
       3    O1      16.303786   16.595783   21.088168 O.3        1 MOL1        -0.3740
       4    C2      16.579676   14.399028   22.012395 C.3        1 MOL1         0.1003
       5    H2      16.555870   13.333278   21.750345 H          1 MOL1         0.0783
       6    O2      15.629469   14.649593   23.060892 O.3        1 MOL1        -0.5519
       7    H3      15.365338   15.601692   22.995806 H          1 MOL1         0.3769
       8    C3      18.013594   14.744452   22.485560 C.3        1 MOL1         0.1053
       9    H4      18.029059   15.795251   22.806228 H          1 MOL1         0.0783
      10    O3      18.366984   13.898192   23.583854 O.3        1 MOL1        -0.5519
      11    H5      17.569864   13.885540   24.160231 H          1 MOL1         0.3769
      12    C4      19.020495   14.576551   21.319559 C.3        1 MOL1         0.1018
      13    H6      19.118619   13.509039   21.082116 H          1 MOL1         0.0783
      14    C5      18.556824   15.335917   20.047990 C.3        1 MOL1         0.1043
      15    H7      18.565402   16.410658   20.263691 H          1 MOL1         0.0783
      16    O4      17.205668   14.924025   19.721875 O.3        1 MOL1        -0.3740
      17    C6      19.471758   15.124760   18.814131 C.3        1 MOL1         0.0138
      18    H8      20.272228   15.875083   18.849032 H          1 MOL1         0.0794
      19    H9      18.889229   15.324321   17.905015 H          1 MOL1         0.0794
      20    O5      20.048503   13.813301   18.757573 O.3        1 MOL1        -0.5486
      21    H10     20.666346   13.734381   19.519307 H          1 MOL1         0.3769
      22    C7      14.655428   20.331363   20.710241 C.3        1 MOL1         0.2972
      23    H11     14.067717   21.235478   20.505354 H          1 MOL1         0.0751
      24    O6      15.988363   20.648017   21.164500 O.3        1 MOL1        -0.3740
      25    C8      13.969279   19.442477   21.778320 C.3        1 MOL1         0.1003
      26    H12     13.013743   19.103262   21.357574 H          1 MOL1         0.0783
      27    O7      13.713593   20.169532   22.989282 O.3        1 MOL1        -0.5519
      28    H13     14.576997   20.550368   23.291920 H          1 MOL1         0.3769
      29    C9      14.837875   18.193158   22.061398 C.3        1 MOL1         0.1053
      30    H14     15.776077   18.527684   22.526515 H          1 MOL1         0.0783
      31    O8      14.146489   17.314910   22.955579 O.3        1 MOL1        -0.5519
      32    H15     13.782450   17.899247   23.657528 H          1 MOL1         0.3769
      33    C10     15.187826   17.437746   20.753594 C.3        1 MOL1         0.1018
      34    H16     14.307985   16.861422   20.440479 H          1 MOL1         0.0783
      35    C11     15.644134   18.382665   19.604116 C.3        1 MOL1         0.1043
      36    H17     16.653685   18.734644   19.836142 H          1 MOL1         0.0783
      37    O9      14.765994   19.531607   19.513452 O.3        1 MOL1        -0.3740
      38    C12     15.722554   17.705560   18.214298 C.3        1 MOL1         0.0138
      39    H18     16.592682   17.035815   18.196774 H          1 MOL1         0.0794
      40    H19     15.903569   18.484778   17.462102 H          1 MOL1         0.0794
      41    O10     14.534760   16.974459   17.885548 O.3        1 MOL1        -0.5486
      42    H20     14.623872   16.076338   18.268103 H          1 MOL1         0.3769
      43    C13     18.493352   23.762944   22.221404 C.3        1 MOL1         0.2972
      44    H21     18.937259   24.722797   22.516291 H          1 MOL1         0.0751
      45    O11     19.506328   22.790357   21.901750 O.3        1 MOL1        -0.3740
      46    C14     17.635001   23.208600   23.382060 C.3        1 MOL1         0.1003
      47    H22     16.833535   23.933234   23.576045 H          1 MOL1         0.0783
      48    O12     18.432622   23.058137   24.566498 O.3        1 MOL1        -0.5519
      49    H23     19.375262   23.039841   24.274676 H          1 MOL1         0.3769
      50    C15     16.979268   21.865509   22.987680 C.3        1 MOL1         0.1053
      51    H24     17.774523   21.120074   22.870845 H          1 MOL1         0.0783
      52    O13     16.090387   21.455204   24.030382 O.3        1 MOL1        -0.5519
      53    H25     16.621828   21.533205   24.854839 H          1 MOL1         0.3769
      54    C16     16.215886   21.987297   21.643170 C.3        1 MOL1         0.1018
      55    H26     15.276863   22.528572   21.819670 H          1 MOL1         0.0783
      56    C17     17.051091   22.706682   20.546950 C.3        1 MOL1         0.1043
      57    H27     17.848291   22.018981   20.240723 H          1 MOL1         0.0783
      58    O14     17.648022   23.924556   21.063324 O.3        1 MOL1        -0.3740
      59    C18     16.236238   23.057281   19.279248 C.3        1 MOL1         0.0138
      60    H28     15.995293   22.124500   18.751309 H          1 MOL1         0.0794
      61    H29     16.867650   23.656741   18.609697 H          1 MOL1         0.0794
      62    O15     15.029454   23.763571   19.593249 O.3        1 MOL1        -0.5486
      63    H30     14.601601   24.013727   18.745512 H          1 MOL1         0.3769
      64    C19     23.597042   22.698275   21.027783 C.3        1 MOL1         0.2972
      65    H31     24.610164   22.975034   20.711037 H          1 MOL1         0.0751
      66    O16     23.497800   21.299538   21.350138 O.3        1 MOL1        -0.3740
      67    C20     23.199470   23.487457   22.301442 C.3        1 MOL1         0.1003
      68    H32     23.246402   24.556812   22.057913 H          1 MOL1         0.0783
      69    O17     24.109868   23.205392   23.377028 O.3        1 MOL1        -0.5519
      70    H33     24.343094   22.244722   23.320408 H          1 MOL1         0.3769
      71    C21     21.746669   23.154050   22.719787 C.3        1 MOL1         0.1053
      72    H34     21.715177   22.102078   23.030706 H          1 MOL1         0.0783
      73    O18     21.353118   23.994216   23.809470 O.3        1 MOL1        -0.5519
      74    H35     22.116050   23.981967   24.429546 H          1 MOL1         0.3769
      75    C22     20.780963   23.338861   21.523961 C.3        1 MOL1         0.1018
      76    H36     20.711430   24.409954   21.292176 H          1 MOL1         0.0783
      77    C23     21.276085   22.586256   20.260161 C.3        1 MOL1         0.1043
      78    H37     21.246094   21.507753   20.461429 H          1 MOL1         0.0783
      79    O19     22.640340   22.991862   19.986055 O.3        1 MOL1        -0.3740
      80    C24     20.421143   22.836695   18.991126 C.3        1 MOL1         0.0138
      81    H38     19.606571   22.103909   18.973810 H          1 MOL1         0.0794
      82    H39     21.040735   22.639417   18.106344 H          1 MOL1         0.0794
      83    O20     19.874284   24.160472   18.927635 O.3        1 MOL1        -0.5486
      84    H40     19.176402   24.221096   19.620575 H          1 MOL1         0.3769
      85    C25     25.175344   17.590366   20.875139 C.3        1 MOL1         0.2972
      86    H41     25.771460   16.692833   20.665979 H          1 MOL1         0.0751
      87    O21     23.802392   17.259493   21.176243 O.3        1 MOL1        -0.3740
      88    C26     25.783034   18.415486   22.039743 C.3        1 MOL1         0.1003
      89    H42     26.758652   18.785551   21.698511 H          1 MOL1         0.0783
      90    O22     25.980457   17.623911   23.219957 O.3        1 MOL1        -0.5519
      91    H43     25.085059   17.324816   23.520771 H          1 MOL1         0.3769
      92    C27     24.887213   19.641874   22.335690 C.3        1 MOL1         0.1053
      93    H44     23.918105   19.278678   22.706087 H          1 MOL1         0.0783
      94    O23     25.503432   20.466667   23.330612 O.3        1 MOL1        -0.5519
      95    H45     25.796681   19.845703   24.033925 H          1 MOL1         0.3769
      96    C28     24.639105   20.476424   21.053197 C.3        1 MOL1         0.1018
      97    H46     25.540100   21.071055   20.855730 H          1 MOL1         0.0783
      98    C29     24.291032   19.609809   19.806176 C.3        1 MOL1         0.1043
      99    H47     23.261063   19.254055   19.914644 H          1 MOL1         0.0783
     100    O24     25.171829   18.460606   19.723629 O.3        1 MOL1        -0.3740
     101    C30     24.354080   20.374084   18.461312 C.3        1 MOL1         0.0138
     102    H48     23.502297   21.064809   18.405835 H          1 MOL1         0.0794
     103    H49     24.229412   19.647188   17.647803 H          1 MOL1         0.0794
     104    O25     25.581957   21.092907   18.288970 O.3        1 MOL1        -0.5486
     105    H50     25.474993   21.972040   18.708658 H          1 MOL1         0.3769
     106    C31     21.232912   14.231872   22.284595 C.3        1 MOL1         0.2972
     107    H51     20.752032   13.305842   22.625530 H          1 MOL1         0.0751
     108    O26     20.277401   15.147250   21.716979 O.3        1 MOL1        -0.3740
     109    C32     21.923794   14.937505   23.475334 C.3        1 MOL1         0.1003
     110    H52     22.695423   14.258595   23.860285 H          1 MOL1         0.0783
     111    O27     20.964656   15.196863   24.512382 O.3        1 MOL1        -0.5519
     112    H53     20.075895   14.979737   24.143533 H          1 MOL1         0.3769
     113    C33     22.622453   16.239897   23.009947 C.3        1 MOL1         0.1053
     114    H54     21.849753   16.955760   22.705926 H          1 MOL1         0.0783
     115    O28     23.386455   16.795143   24.085661 O.3        1 MOL1        -0.5519
     116    H55     22.724245   17.212980   24.702097 H          1 MOL1         0.3769
     117    C34     23.546959   15.980295   21.789574 C.3        1 MOL1         0.1018
     118    H56     24.469387   15.500122   22.142126 H          1 MOL1         0.0783
     119    C35     22.876194   15.102969   20.694010 C.3        1 MOL1         0.1043
     120    H57     22.120693   15.718812   20.190928 H          1 MOL1         0.0783
     121    O29     22.227598   13.946550   21.280239 O.3        1 MOL1        -0.3740
     122    C36     23.860576   14.614290   19.604707 C.3        1 MOL1         0.0138
     123    H58     24.159678   15.477051   18.994092 H          1 MOL1         0.0794
     124    H59     23.332603   13.914420   18.943091 H          1 MOL1         0.0794
     125    O30     25.022298   13.990517   20.166075 O.3        1 MOL1        -0.5486
     126    H60     25.559742   13.638370   19.423377 H          1 MOL1         0.3769
     127    C1      19.320413   19.438554   18.503179 C.2        1 MOL1        -0.2535
     128    H1      18.456497   19.824103   19.038082 H          1 MOL1         0.0845
     129    H2      19.316275   19.543498   17.419995 H          1 MOL1         0.0845
     130    C2      20.355039   18.869325   19.130824 C.2        1 MOL1        -0.1324
     131    H3      21.197125   18.506001   18.543074 H          1 MOL1         0.0833
     132    C3      20.498452   18.647321   20.626331 C.3        1 MOL1        -0.1813
     133    H4      21.368074   19.204521   20.989231 H          1 MOL1         0.0753
     134    H5      20.734735   17.591887   20.796850 H          1 MOL1         0.0753
     135    C4      19.259954   19.025644   21.470861 C.3        1 MOL1        -0.1855
     136    H6      19.053261   20.096616   21.360095 H          1 MOL1         0.0755
     137    H7      18.386584   18.492000   21.085320 H          1 MOL1         0.0755
     138    C5      19.407790   18.669035   22.967953 C.3        1 MOL1        -0.1855
     139    H8      19.680836   17.611233   23.073044 H          1 MOL1         0.0755
     140    H9      18.432264   18.782394   23.460417 H          1 MOL1         0.0755
     141    C6      20.441716   19.552736   23.711147 C.3        1 MOL1        -0.1958
     142    H10     21.421081   19.505272   23.223403 H          1 MOL1         0.0753
     143    H11     20.116199   20.598106   23.694032 H          1 MOL1         0.0753
     144    C7      20.631877   19.147912   25.168902 C.2        1 MOL1         0.6174
     145    O1      19.796525   19.505637   25.976035 O.co2      1 MOL1        -0.6695
     146    O2      21.617269   18.494632   25.453630 O.co2      1 MOL1        -0.6695
@<TRIPOS>BOND
    1     1     2    1
    2     1     3    1
    3     1     4    1
    4     4     5    1
    5     4     6    1
    6     6     7    1
    7     4     8    1
    8     8     9    1
    9     8    10    1
   10    10    11    1
   11     8    12    1
   12    12    13    1
   13    12    14    1
   14    14    15    1
   15     1    16    1
   16    14    16    1
   17    14    17    1
   18    17    18    1
   19    17    19    1
   20    17    20    1
   21    20    21    1
   22    22    23    1
   23    22    24    1
   24    22    25    1
   25    25    26    1
   26    25    27    1
   27    27    28    1
   28    25    29    1
   29    29    30    1
   30    29    31    1
   31    31    32    1
   32     3    33    1
   33    29    33    1
   34    33    34    1
   35    33    35    1
   36    35    36    1
   37    22    37    1
   38    35    37    1
   39    35    38    1
   40    38    39    1
   41    38    40    1
   42    38    41    1
   43    41    42    1
   44    43    44    1
   45    43    45    1
   46    43    46    1
   47    46    47    1
   48    46    48    1
   49    48    49    1
   50    46    50    1
   51    50    51    1
   52    50    52    1
   53    52    53    1
   54    24    54    1
   55    50    54    1
   56    54    55    1
   57    54    56    1
   58    56    57    1
   59    43    58    1
   60    56    58    1
   61    56    59    1
   62    59    60    1
   63    59    61    1
   64    59    62    1
   65    62    63    1
   66    64    65    1
   67    64    66    1
   68    64    67    1
   69    67    68    1
   70    67    69    1
   71    69    70    1
   72    67    71    1
   73    71    72    1
   74    71    73    1
   75    73    74    1
   76    45    75    1
   77    71    75    1
   78    75    76    1
   79    75    77    1
   80    77    78    1
   81    64    79    1
   82    77    79    1
   83    77    80    1
   84    80    81    1
   85    80    82    1
   86    80    83    1
   87    83    84    1
   88    85    86    1
   89    85    87    1
   90    85    88    1
   91    88    89    1
   92    88    90    1
   93    90    91    1
   94    88    92    1
   95    92    93    1
   96    92    94    1
   97    94    95    1
   98    66    96    1
   99    92    96    1
  100    96    97    1
  101    96    98    1
  102    98    99    1
  103    85   100    1
  104    98   100    1
  105    98   101    1
  106   101   102    1
  107   101   103    1
  108   101   104    1
  109   104   105    1
  110   106   107    1
  111    12   108    1
  112   106   108    1
  113   106   109    1
  114   109   110    1
  115   109   111    1
  116   111   112    1
  117   109   113    1
  118   113   114    1
  119   113   115    1
  120   115   116    1
  121    87   117    1
  122   113   117    1
  123   117   118    1
  124   117   119    1
  125   119   120    1
  126   106   121    1
  127   119   121    1
  128   119   122    1
  129   122   123    1
  130   122   124    1
  131   122   125    1
  132   125   126    1
  133   127   128    1
  134   127   129    1
  135   127   130    2
  136   130   131    1
  137   130   132    1
  138   132   133    1
  139   132   134    1
  140   132   135    1
  141   135   136    1
  142   135   137    1
  143   135   138    1
  144   138   139    1
  145   138   140    1
  146   138   141    1
  147   141   142    1
  148   141   143    1
  149   141   144    1
  150   144   145    1
  151   144   146    2
@<TRIPOS>SUBSTRUCTURE
       1 MOL1            1 RESIDUE      1      MOL     
       2 MOL1          146 RESIDUE      1      MOL     
@<SCITEGIC>MOL_PROPERTY
feprocess Rank
SciTegic.value.IntegerValue
4

@<SCITEGIC>MOL_PROPERTY
Conf_Id
SciTegic.value.IntegerValue
304

@<SCITEGIC>MOL_PROPERTY
Probability
SciTegic.value.DoubleValue
10.15

@<SCITEGIC>MOL_PROPERTY
G
SciTegic.value.DoubleValue
501.736

@<SCITEGIC>MOL_PROPERTY
E
SciTegic.value.DoubleValue
316.732

@<SCITEGIC>MOL_PROPERTY
-TS
SciTegic.value.DoubleValue
185.004

@<SCITEGIC>MOL_PROPERTY
U+W
SciTegic.value.DoubleValue
187.961

@<SCITEGIC>MOL_PROPERTY
U
SciTegic.value.DoubleValue
271.080

@<SCITEGIC>MOL_PROPERTY
W
SciTegic.value.DoubleValue
-83.120

@<SCITEGIC>MOL_PROPERTY
W(PB)
SciTegic.value.DoubleValue
-89.039

@<SCITEGIC>MOL_PROPERTY
W(SA)
SciTegic.value.DoubleValue
5.919

@<SCITEGIC>MOL_PROPERTY
Valence
SciTegic.value.DoubleValue
155.333

@<SCITEGIC>MOL_PROPERTY
Coulomb
SciTegic.value.DoubleValue
144.481

@<SCITEGIC>MOL_PROPERTY
VdW
SciTegic.value.DoubleValue
-28.734

@<SCITEGIC>MOL_PROPERTY
VdW6
SciTegic.value.DoubleValue
-185.209

@<SCITEGIC>MOL_PROPERTY
VdW12
SciTegic.value.DoubleValue
156.475

@<SCITEGIC>MOL_PROPERTY
Bond
SciTegic.value.DoubleValue
4.672

@<SCITEGIC>MOL_PROPERTY
Angle
SciTegic.value.DoubleValue
14.048

@<SCITEGIC>MOL_PROPERTY
Pdih
SciTegic.value.DoubleValue
136.612

@<SCITEGIC>MOL_PROPERTY
Idih
SciTegic.value.DoubleValue
0.001

@<SCITEGIC>MOL_PROPERTY
Tether
SciTegic.value.DoubleValue
0.000

@<TRIPOS>MOLECULE
CD_guest-s22_fast_vm2_rndm.mol2 : feprocess host+ligand conformer 5
         146         151           2
SMALL
USER_CHARGES
 
@<TRIPOS>ATOM
       1    C1      16.096967   15.108605   20.929358 C.3        1 MOL1         0.2972
       2    H1      15.008239   14.998947   20.843406 H          1 MOL1         0.0751
       3    O1      16.474530   16.481484   21.171571 O.3        1 MOL1        -0.3740
       4    C2      16.667429   14.207926   22.055329 C.3        1 MOL1         0.1003
       5    H2      16.488589   13.166641   21.756947 H          1 MOL1         0.0783
       6    O2      16.018675   14.442490   23.313684 O.3        1 MOL1        -0.5519
       7    H3      16.183737   15.389140   23.554099 H          1 MOL1         0.3769
       8    C3      18.197656   14.410315   22.173247 C.3        1 MOL1         0.1053
       9    H4      18.382470   15.440708   22.501419 H          1 MOL1         0.0783
      10    O3      18.725053   13.495348   23.138683 O.3        1 MOL1        -0.5519
      11    H5      18.103861   13.540329   23.899556 H          1 MOL1         0.3769
      12    C4      18.899613   14.198151   20.806569 C.3        1 MOL1         0.1018
      13    H6      18.954760   13.118069   20.618004 H          1 MOL1         0.0783
      14    C5      18.164355   14.898677   19.626287 C.3        1 MOL1         0.1043
      15    H7      18.354352   15.975304   19.692305 H          1 MOL1         0.0783
      16    O4      16.732661   14.679639   19.706134 O.3        1 MOL1        -0.3740
      17    C6      18.660429   14.435732   18.235879 C.3        1 MOL1         0.0138
      18    H8      19.680251   14.815980   18.087027 H          1 MOL1         0.0794
      19    H9      18.025657   14.895259   17.466545 H          1 MOL1         0.0794
      20    O5      18.649568   13.008185   18.105018 O.3        1 MOL1        -0.5486
      21    H10     18.933555   12.791536   17.190321 H          1 MOL1         0.3769
      22    C7      15.149081   20.226902   22.255654 C.3        1 MOL1         0.2972
      23    H11     14.612769   21.119944   22.598660 H          1 MOL1         0.0751
      24    O6      16.392420   20.566604   21.605569 O.3        1 MOL1        -0.3740
      25    C8      15.459428   19.300318   23.457309 C.3        1 MOL1         0.1003
      26    H12     14.501010   18.949530   23.860996 H          1 MOL1         0.0783
      27    O7      16.155122   20.030541   24.481064 O.3        1 MOL1        -0.5519
      28    H13     16.946006   19.502063   24.756318 H          1 MOL1         0.3769
      29    C9      16.253708   18.061786   22.972999 C.3        1 MOL1         0.1053
      30    H14     17.203151   18.412367   22.561800 H          1 MOL1         0.0783
      31    O8      16.504448   17.165925   24.063561 O.3        1 MOL1        -0.5519
      32    H15     17.240536   17.572388   24.592955 H          1 MOL1         0.3769
      33    C10     15.506899   17.328775   21.827820 C.3        1 MOL1         0.1018
      34    H16     14.675893   16.753980   22.257621 H          1 MOL1         0.0783
      35    C11     14.980382   18.306180   20.736000 C.3        1 MOL1         0.1043
      36    H17     15.845623   18.636876   20.150460 H          1 MOL1         0.0783
      37    O9      14.344144   19.471424   21.323792 O.3        1 MOL1        -0.3740
      38    C12     13.988405   17.648466   19.747486 C.3        1 MOL1         0.0138
      39    H18     14.543122   16.939164   19.118271 H          1 MOL1         0.0794
      40    H19     13.585350   18.425954   19.084760 H          1 MOL1         0.0794
      41    O10     12.923824   16.968212   20.423908 O.3        1 MOL1        -0.5486
      42    H20     12.297195   16.642345   19.741459 H          1 MOL1         0.3769
      43    C13     18.564448   23.845886   20.319459 C.3        1 MOL1         0.2972
      44    H21     18.939282   24.757482   19.836447 H          1 MOL1         0.0751
      45    O11     19.625062   23.101063   20.950206 O.3        1 MOL1        -0.3740
      46    C14     17.510572   24.185559   21.401532 C.3        1 MOL1         0.1003
      47    H22     16.688000   24.708703   20.896729 H          1 MOL1         0.0783
      48    O12     18.063805   25.046862   22.410309 O.3        1 MOL1        -0.5519
      49    H23     18.906721   24.631365   22.724662 H          1 MOL1         0.3769
      50    C15     16.929043   22.900588   22.046353 C.3        1 MOL1         0.1053
      51    H24     17.713531   22.438554   22.661953 H          1 MOL1         0.0783
      52    O13     15.821539   23.281078   22.868943 O.3        1 MOL1        -0.5519
      53    H25     16.158783   24.008594   23.436178 H          1 MOL1         0.3769
      54    C16     16.479660   21.860719   20.979170 C.3        1 MOL1         0.1018
      55    H26     15.513480   22.172348   20.562948 H          1 MOL1         0.0783
      56    C17     17.513965   21.698590   19.829649 C.3        1 MOL1         0.1043
      57    H27     18.390565   21.177140   20.232173 H          1 MOL1         0.0783
      58    O14     17.922412   22.998371   19.344560 O.3        1 MOL1        -0.3740
      59    C18     17.009447   20.855125   18.631436 C.3        1 MOL1         0.0138
      60    H28     17.159290   19.794803   18.868749 H          1 MOL1         0.0794
      61    H29     17.641095   21.073770   17.760130 H          1 MOL1         0.0794
      62    O15     15.631059   21.090715   18.315232 O.3        1 MOL1        -0.5486
      63    H30     15.097492   20.772046   19.075207 H          1 MOL1         0.3769
      64    C19     23.689653   22.949076   21.493105 C.3        1 MOL1         0.2972
      65    H31     24.772798   23.101221   21.573567 H          1 MOL1         0.0751
      66    O16     23.345178   21.545640   21.515919 O.3        1 MOL1        -0.3740
      67    C20     22.934095   23.696536   22.621411 C.3        1 MOL1         0.1003
      68    H32     23.100257   24.770287   22.463838 H          1 MOL1         0.0783
      69    O17     23.426123   23.343723   23.921993 O.3        1 MOL1        -0.5519
      70    H33     23.262797   22.374084   24.044123 H          1 MOL1         0.3769
      71    C21     21.413875   23.432500   22.505097 C.3        1 MOL1         0.1053
      72    H34     21.236712   22.365978   22.692885 H          1 MOL1         0.0783
      73    O18     20.713373   24.217505   23.476068 O.3        1 MOL1        -0.5519
      74    H35     21.210178   24.091439   24.314964 H          1 MOL1         0.3769
      75    C22     20.891922   23.772418   21.085155 C.3        1 MOL1         0.1018
      76    H36     20.786171   24.863097   21.014192 H          1 MOL1         0.0783
      77    C23     21.815521   23.251464   19.943346 C.3        1 MOL1         0.1043
      78    H37     21.668894   22.169641   19.851780 H          1 MOL1         0.0783
      79    O19     23.210254   23.503472   20.250619 O.3        1 MOL1        -0.3740
      80    C24     21.497120   23.864837   18.558933 C.3        1 MOL1         0.0138
      81    H38     20.541588   23.452500   18.207204 H          1 MOL1         0.0794
      82    H39     22.270485   23.543880   17.848329 H          1 MOL1         0.0794
      83    O20     21.423747   25.295606   18.603691 O.3        1 MOL1        -0.5486
      84    H40     21.293769   25.615797   17.684398 H          1 MOL1         0.3769
      85    C25     24.654680   17.716956   22.359779 C.3        1 MOL1         0.2972
      86    H41     25.203150   16.820410   22.673914 H          1 MOL1         0.0751
      87    O21     23.541640   17.388147   21.503196 O.3        1 MOL1        -0.3740
      88    C26     24.120104   18.487587   23.594112 C.3        1 MOL1         0.1003
      89    H42     24.988895   18.781429   24.196946 H          1 MOL1         0.0783
      90    O22     23.261222   17.651441   24.384589 O.3        1 MOL1        -0.5519
      91    H43     23.451167   16.717017   24.133864 H          1 MOL1         0.3769
      92    C27     23.380261   19.776193   23.154844 C.3        1 MOL1         0.1053
      93    H44     22.479900   19.475652   22.610297 H          1 MOL1         0.0783
      94    O23     23.013696   20.545710   24.305580 O.3        1 MOL1        -0.5519
      95    H45     22.304984   20.025556   24.774553 H          1 MOL1         0.3769
      96    C28     24.241432   20.638502   22.193284 C.3        1 MOL1         0.1018
      97    H46     24.999057   21.169663   22.783269 H          1 MOL1         0.0783
      98    C29     24.921792   19.790895   21.080079 C.3        1 MOL1         0.1043
      99    H47     24.144862   19.487158   20.366046 H          1 MOL1         0.0783
     100    O24     25.535047   18.603942   21.639909 O.3        1 MOL1        -0.3740
     101    C30     25.997873   20.564590   20.279664 C.3        1 MOL1         0.0138
     102    H48     25.509139   21.375621   19.722785 H          1 MOL1         0.0794
     103    H49     26.433129   19.882036   19.537783 H          1 MOL1         0.0794
     104    O25     27.033282   21.096463   21.117424 O.3        1 MOL1        -0.5486
     105    H50     26.645461   21.795332   21.682541 H          1 MOL1         0.3769
     106    C31     21.327446   13.985397   20.496956 C.3        1 MOL1         0.2972
     107    H51     21.004079   13.011011   20.109140 H          1 MOL1         0.0751
     108    O26     20.208455   14.795898   20.912473 O.3        1 MOL1        -0.3740
     109    C32     22.261352   13.805929   21.720051 C.3        1 MOL1         0.1003
     110    H52     23.139611   13.243067   21.377893 H          1 MOL1         0.0783
     111    O27     21.614990   13.065650   22.767649 O.3        1 MOL1        -0.5519
     112    H53     20.686114   13.403085   22.842137 H          1 MOL1         0.3769
     113    C33     22.755170   15.177812   22.245494 C.3        1 MOL1         0.1053
     114    H54     21.888085   15.730932   22.631989 H          1 MOL1         0.0783
     115    O28     23.693391   14.942489   23.301340 O.3        1 MOL1        -0.5519
     116    H55     23.311643   14.190922   23.810522 H          1 MOL1         0.3769
     117    C34     23.396097   16.010987   21.097943 C.3        1 MOL1         0.1018
     118    H56     24.366453   15.572655   20.832553 H          1 MOL1         0.0783
     119    C35     22.485452   16.040550   19.839787 C.3        1 MOL1         0.1043
     120    H57     21.597955   16.630341   20.083780 H          1 MOL1         0.0783
     121    O29     22.072874   14.698551   19.486011 O.3        1 MOL1        -0.3740
     122    C36     23.137575   16.710689   18.605402 C.3        1 MOL1         0.0138
     123    H58     23.142243   17.797727   18.762183 H          1 MOL1         0.0794
     124    H59     22.505843   16.516237   17.728575 H          1 MOL1         0.0794
     125    O30     24.473502   16.250603   18.366329 O.3        1 MOL1        -0.5486
     126    H60     25.041591   16.625714   19.073067 H          1 MOL1         0.3769
     127    C1      19.749289   18.889060   17.893585 C.2        1 MOL1        -0.2535
     128    H1      19.061003   18.133414   18.264468 H          1 MOL1         0.0845
     129    H2      19.751301   19.066953   16.819945 H          1 MOL1         0.0845
     130    C2      20.562700   19.578919   18.701025 C.2        1 MOL1        -0.1324
     131    H3      21.230663   20.322736   18.268973 H          1 MOL1         0.0833
     132    C3      20.674793   19.442717   20.209631 C.3        1 MOL1        -0.1813
     133    H4      20.576361   20.433926   20.665674 H          1 MOL1         0.0753
     134    H5      21.688239   19.106184   20.456035 H          1 MOL1         0.0753
     135    C4      19.644195   18.492562   20.861274 C.3        1 MOL1        -0.1855
     136    H6      18.626987   18.868209   20.694584 H          1 MOL1         0.0755
     137    H7      19.694495   17.515287   20.375631 H          1 MOL1         0.0755
     138    C5      19.883191   18.285541   22.372409 C.3        1 MOL1        -0.1855
     139    H8      20.899600   17.912815   22.548757 H          1 MOL1         0.0755
     140    H9      19.215120   17.492920   22.727977 H          1 MOL1         0.0755
     141    C6      19.637286   19.566023   23.211609 C.3        1 MOL1        -0.1958
     142    H10     20.420525   20.305436   23.026501 H          1 MOL1         0.0753
     143    H11     18.691210   20.039226   22.931023 H          1 MOL1         0.0753
     144    C7      19.586269   19.282129   24.707074 C.2        1 MOL1         0.6174
     145    O1      18.577438   18.754660   25.143464 O.co2      1 MOL1        -0.6695
     146    O2      20.548501   19.596664   25.380466 O.co2      1 MOL1        -0.6695
@<TRIPOS>BOND
    1     1     2    1
    2     1     3    1
    3     1     4    1
    4     4     5    1
    5     4     6    1
    6     6     7    1
    7     4     8    1
    8     8     9    1
    9     8    10    1
   10    10    11    1
   11     8    12    1
   12    12    13    1
   13    12    14    1
   14    14    15    1
   15     1    16    1
   16    14    16    1
   17    14    17    1
   18    17    18    1
   19    17    19    1
   20    17    20    1
   21    20    21    1
   22    22    23    1
   23    22    24    1
   24    22    25    1
   25    25    26    1
   26    25    27    1
   27    27    28    1
   28    25    29    1
   29    29    30    1
   30    29    31    1
   31    31    32    1
   32     3    33    1
   33    29    33    1
   34    33    34    1
   35    33    35    1
   36    35    36    1
   37    22    37    1
   38    35    37    1
   39    35    38    1
   40    38    39    1
   41    38    40    1
   42    38    41    1
   43    41    42    1
   44    43    44    1
   45    43    45    1
   46    43    46    1
   47    46    47    1
   48    46    48    1
   49    48    49    1
   50    46    50    1
   51    50    51    1
   52    50    52    1
   53    52    53    1
   54    24    54    1
   55    50    54    1
   56    54    55    1
   57    54    56    1
   58    56    57    1
   59    43    58    1
   60    56    58    1
   61    56    59    1
   62    59    60    1
   63    59    61    1
   64    59    62    1
   65    62    63    1
   66    64    65    1
   67    64    66    1
   68    64    67    1
   69    67    68    1
   70    67    69    1
   71    69    70    1
   72    67    71    1
   73    71    72    1
   74    71    73    1
   75    73    74    1
   76    45    75    1
   77    71    75    1
   78    75    76    1
   79    75    77    1
   80    77    78    1
   81    64    79    1
   82    77    79    1
   83    77    80    1
   84    80    81    1
   85    80    82    1
   86    80    83    1
   87    83    84    1
   88    85    86    1
   89    85    87    1
   90    85    88    1
   91    88    89    1
   92    88    90    1
   93    90    91    1
   94    88    92    1
   95    92    93    1
   96    92    94    1
   97    94    95    1
   98    66    96    1
   99    92    96    1
  100    96    97    1
  101    96    98    1
  102    98    99    1
  103    85   100    1
  104    98   100    1
  105    98   101    1
  106   101   102    1
  107   101   103    1
  108   101   104    1
  109   104   105    1
  110   106   107    1
  111    12   108    1
  112   106   108    1
  113   106   109    1
  114   109   110    1
  115   109   111    1
  116   111   112    1
  117   109   113    1
  118   113   114    1
  119   113   115    1
  120   115   116    1
  121    87   117    1
  122   113   117    1
  123   117   118    1
  124   117   119    1
  125   119   120    1
  126   106   121    1
  127   119   121    1
  128   119   122    1
  129   122   123    1
  130   122   124    1
  131   122   125    1
  132   125   126    1
  133   127   128    1
  134   127   129    1
  135   127   130    2
  136   130   131    1
  137   130   132    1
  138   132   133    1
  139   132   134    1
  140   132   135    1
  141   135   136    1
  142   135   137    1
  143   135   138    1
  144   138   139    1
  145   138   140    1
  146   138   141    1
  147   141   142    1
  148   141   143    1
  149   141   144    1
  150   144   145    1
  151   144   146    2
@<TRIPOS>SUBSTRUCTURE
       1 MOL1            1 RESIDUE      1      MOL     
       2 MOL1          146 RESIDUE      1      MOL     
@<SCITEGIC>MOL_PROPERTY
feprocess Rank
SciTegic.value.IntegerValue
5

@<SCITEGIC>MOL_PROPERTY
Conf_Id
SciTegic.value.IntegerValue
964

@<SCITEGIC>MOL_PROPERTY
Probability
SciTegic.value.DoubleValue
5.01

@<SCITEGIC>MOL_PROPERTY
G
SciTegic.value.DoubleValue
502.157

@<SCITEGIC>MOL_PROPERTY
E
SciTegic.value.DoubleValue
312.253

@<SCITEGIC>MOL_PROPERTY
-TS
SciTegic.value.DoubleValue
189.905

@<SCITEGIC>MOL_PROPERTY
U+W
SciTegic.value.DoubleValue
183.482

@<SCITEGIC>MOL_PROPERTY
U
SciTegic.value.DoubleValue
260.049

@<SCITEGIC>MOL_PROPERTY
W
SciTegic.value.DoubleValue
-76.567

@<SCITEGIC>MOL_PROPERTY
W(PB)
SciTegic.value.DoubleValue
-82.562

@<SCITEGIC>MOL_PROPERTY
W(SA)
SciTegic.value.DoubleValue
5.995

@<SCITEGIC>MOL_PROPERTY
Valence
SciTegic.value.DoubleValue
152.585

@<SCITEGIC>MOL_PROPERTY
Coulomb
SciTegic.value.DoubleValue
132.793

@<SCITEGIC>MOL_PROPERTY
VdW
SciTegic.value.DoubleValue
-25.329

@<SCITEGIC>MOL_PROPERTY
VdW6
SciTegic.value.DoubleValue
-189.500

@<SCITEGIC>MOL_PROPERTY
VdW12
SciTegic.value.DoubleValue
164.171

@<SCITEGIC>MOL_PROPERTY
Bond
SciTegic.value.DoubleValue
5.238

@<SCITEGIC>MOL_PROPERTY
Angle
SciTegic.value.DoubleValue
15.229

@<SCITEGIC>MOL_PROPERTY
Pdih
SciTegic.value.DoubleValue
132.118

@<SCITEGIC>MOL_PROPERTY
Idih
SciTegic.value.DoubleValue
0.000

@<SCITEGIC>MOL_PROPERTY
Tether
SciTegic.value.DoubleValue
0.000

@<TRIPOS>MOLECULE
CD_guest-s22_fast_vm2_rndm.mol2 : feprocess host+ligand conformer 6
         146         151           2
SMALL
USER_CHARGES
 
@<TRIPOS>ATOM
       1    C1      16.238910   15.066917   20.860966 C.3        1 MOL1         0.2972
       2    H1      15.170988   14.960471   20.631305 H          1 MOL1         0.0751
       3    O1      16.619416   16.455471   20.974826 O.3        1 MOL1        -0.3740
       4    C2      16.612438   14.312519   22.164687 C.3        1 MOL1         0.1003
       5    H2      16.443108   13.244010   21.977886 H          1 MOL1         0.0783
       6    O2      15.801222   14.716243   23.276833 O.3        1 MOL1        -0.5519
       7    H3      15.979069   15.678878   23.427127 H          1 MOL1         0.3769
       8    C3      18.116338   14.506139   22.474446 C.3        1 MOL1         0.1053
       9    H4      18.295560   15.572444   22.672016 H          1 MOL1         0.0783
      10    O3      18.475545   13.734065   23.625098 O.3        1 MOL1        -0.5519
      11    H5      17.749151   13.883684   24.270649 H          1 MOL1         0.3769
      12    C4      18.984212   14.079866   21.264054 C.3        1 MOL1         0.1018
      13    H6      18.998354   12.983232   21.217897 H          1 MOL1         0.0783
      14    C5      18.462845   14.647657   19.913883 C.3        1 MOL1         0.1043
      15    H7      18.695923   15.718021   19.881434 H          1 MOL1         0.0783
      16    O4      17.026569   14.474773   19.806906 O.3        1 MOL1        -0.3740
      17    C6      19.127507   13.993090   18.679750 C.3        1 MOL1         0.0138
      18    H8      20.175397   14.317902   18.637205 H          1 MOL1         0.0794
      19    H9      18.632092   14.369873   17.775363 H          1 MOL1         0.0794
      20    O5      19.062052   12.561425   18.723151 O.3        1 MOL1        -0.5486
      21    H10     19.485830   12.219641   17.906280 H          1 MOL1         0.3769
      22    C7      15.051742   20.282408   21.520586 C.3        1 MOL1         0.2972
      23    H11     14.393518   21.137995   21.718255 H          1 MOL1         0.0751
      24    O6      16.322399   20.703879   20.984754 O.3        1 MOL1        -0.3740
      25    C8      15.288506   19.471816   22.821519 C.3        1 MOL1         0.1003
      26    H12     14.307967   19.108237   23.155490 H          1 MOL1         0.0783
      27    O7      15.863101   20.275235   23.863369 O.3        1 MOL1        -0.5519
      28    H13     15.834192   21.214363   23.560677 H          1 MOL1         0.3769
      29    C9      16.182814   18.242697   22.544942 C.3        1 MOL1         0.1053
      30    H14     17.171365   18.602549   22.235650 H          1 MOL1         0.0783
      31    O8      16.298450   17.484676   23.751899 O.3        1 MOL1        -0.5519
      32    H15     16.490129   18.161886   24.440548 H          1 MOL1         0.3769
      33    C10     15.596880   17.380523   21.398072 C.3        1 MOL1         0.1018
      34    H16     14.702957   16.861625   21.768901 H          1 MOL1         0.0783
      35    C11     15.229929   18.246461   20.159989 C.3        1 MOL1         0.1043
      36    H17     16.164356   18.597208   19.703238 H          1 MOL1         0.0783
      37    O9      14.437750   19.394617   20.561293 O.3        1 MOL1        -0.3740
      38    C12     14.450632   17.466571   19.074317 C.3        1 MOL1         0.0138
      39    H18     15.136273   16.748760   18.603469 H          1 MOL1         0.0794
      40    H19     14.132252   18.172895   18.296026 H          1 MOL1         0.0794
      41    O10     13.317687   16.773748   19.614245 O.3        1 MOL1        -0.5486
      42    H20     12.834291   16.363936   18.864116 H          1 MOL1         0.3769
      43    C13     18.589214   24.162367   20.628381 C.3        1 MOL1         0.2972
      44    H21     19.009572   25.148793   20.393710 H          1 MOL1         0.0751
      45    O11     19.595870   23.256690   21.119453 O.3        1 MOL1        -0.3740
      46    C14     17.448400   24.265187   21.672659 C.3        1 MOL1         0.1003
      47    H22     16.644844   24.854256   21.211544 H          1 MOL1         0.0783
      48    O12     17.875546   24.930708   22.870414 O.3        1 MOL1        -0.5519
      49    H23     18.621803   24.400352   23.249556 H          1 MOL1         0.3769
      50    C15     16.878885   22.860803   21.996449 C.3        1 MOL1         0.1053
      51    H24     17.661692   22.277354   22.502920 H          1 MOL1         0.0783
      52    O13     15.749756   23.019732   22.862163 O.3        1 MOL1        -0.5519
      53    H25     16.014809   23.724204   23.496829 H          1 MOL1         0.3769
      54    C16     16.470634   22.109488   20.696502 C.3        1 MOL1         0.1018
      55    H26     15.534390   22.537721   20.316891 H          1 MOL1         0.0783
      56    C17     17.555794   22.204934   19.587447 C.3        1 MOL1         0.1043
      57    H27     18.403474   21.576031   19.887005 H          1 MOL1         0.0783
      58    O14     18.013074   23.572978   19.443846 O.3        1 MOL1        -0.3740
      59    C18     17.077470   21.693283   18.205320 C.3        1 MOL1         0.0138
      60    H28     16.979285   20.600497   18.248547 H          1 MOL1         0.0794
      61    H29     17.855382   21.917982   17.463693 H          1 MOL1         0.0794
      62    O15     15.830334   22.272116   17.801260 O.3        1 MOL1        -0.5486
      63    H30     15.122740   21.847792   18.332151 H          1 MOL1         0.3769
      64    C19     23.420918   22.744853   22.431015 C.3        1 MOL1         0.2972
      65    H31     24.454101   22.782142   22.799529 H          1 MOL1         0.0751
      66    O16     23.064556   21.418270   21.986634 O.3        1 MOL1        -0.3740
      67    C20     22.442928   23.195367   23.544297 C.3        1 MOL1         0.1003
      68    H32     22.620353   24.264223   23.719251 H          1 MOL1         0.0783
      69    O17     22.688060   22.490765   24.770480 O.3        1 MOL1        -0.5519
      70    H33     22.370531   21.554693   24.657479 H          1 MOL1         0.3769
      71    C21     20.987727   23.034306   23.044126 C.3        1 MOL1         0.1053
      72    H34     20.822329   21.977525   22.814434 H          1 MOL1         0.0783
      73    O18     20.046227   23.438195   24.043563 O.3        1 MOL1        -0.5519
      74    H35     19.905156   22.620057   24.591485 H          1 MOL1         0.3769
      75    C22     20.767435   23.827884   21.732353 C.3        1 MOL1         0.1018
      76    H36     20.638368   24.891193   21.974003 H          1 MOL1         0.0783
      77    C23     21.918397   23.632320   20.700504 C.3        1 MOL1         0.1043
      78    H37     21.765281   22.648500   20.247040 H          1 MOL1         0.0783
      79    O19     23.233110   23.650952   21.321437 O.3        1 MOL1        -0.3740
      80    C24     21.898990   24.667285   19.551025 C.3        1 MOL1         0.0138
      81    H38     21.023615   24.468843   18.917799 H          1 MOL1         0.0794
      82    H39     22.791582   24.518956   18.928399 H          1 MOL1         0.0794
      83    O20     21.850319   26.012725   20.040891 O.3        1 MOL1        -0.5486
      84    H40     21.917624   26.614454   19.267505 H          1 MOL1         0.3769
      85    C25     24.793211   17.777968   20.921195 C.3        1 MOL1         0.2972
      86    H41     25.445745   16.996277   20.511518 H          1 MOL1         0.0751
      87    O21     23.543108   17.235010   21.389141 O.3        1 MOL1        -0.3740
      88    C26     25.481625   18.500378   22.106951 C.3        1 MOL1         0.1003
      89    H42     26.422605   18.917375   21.725302 H          1 MOL1         0.0783
      90    O22     25.776834   17.578827   23.169345 O.3        1 MOL1        -0.5519
      91    H43     24.946908   17.071120   23.358278 H          1 MOL1         0.3769
      92    C27     24.624213   19.680659   22.633910 C.3        1 MOL1         0.1053
      93    H44     23.739927   19.269484   23.141924 H          1 MOL1         0.0783
      94    O23     25.416596   20.436632   23.555702 O.3        1 MOL1        -0.5519
      95    H45     25.733095   19.785835   24.219095 H          1 MOL1         0.3769
      96    C28     24.135355   20.598172   21.480319 C.3        1 MOL1         0.1018
      97    H46     24.980259   21.206061   21.131761 H          1 MOL1         0.0783
      98    C29     23.561914   19.786663   20.284215 C.3        1 MOL1         0.1043
      99    H47     22.625834   19.312158   20.603462 H          1 MOL1         0.0783
     100    O24     24.510429   18.763239   19.906564 O.3        1 MOL1        -0.3740
     101    C30     23.235206   20.629310   19.024155 C.3        1 MOL1         0.0138
     102    H48     22.192396   20.960491   19.089447 H          1 MOL1         0.0794
     103    H49     23.298344   19.978578   18.141749 H          1 MOL1         0.0794
     104    O25     24.097969   21.763263   18.860644 O.3        1 MOL1        -0.5486
     105    H50     23.956941   22.356184   19.633543 H          1 MOL1         0.3769
     106    C31     21.393303   13.698993   21.504531 C.3        1 MOL1         0.2972
     107    H51     21.048478   12.657286   21.506520 H          1 MOL1         0.0751
     108    O26     20.294775   14.632069   21.488771 O.3        1 MOL1        -0.3740
     109    C32     22.229133   13.990126   22.774500 C.3        1 MOL1         0.1003
     110    H52     23.107391   13.331897   22.752071 H          1 MOL1         0.0783
     111    O27     21.466217   13.720991   23.962088 O.3        1 MOL1        -0.5519
     112    H53     20.520562   13.932896   23.758100 H          1 MOL1         0.3769
     113    C33     22.728599   15.454682   22.768993 C.3        1 MOL1         0.1053
     114    H54     21.855567   16.112628   22.862269 H          1 MOL1         0.0783
     115    O28     23.612802   15.659133   23.876071 O.3        1 MOL1        -0.5519
     116    H55     23.146831   15.266901   24.647777 H          1 MOL1         0.3769
     117    C34     23.455384   15.798179   21.445532 C.3        1 MOL1         0.1018
     118    H56     24.447680   15.328410   21.470231 H          1 MOL1         0.0783
     119    C35     22.673142   15.321300   20.187139 C.3        1 MOL1         0.1043
     120    H57     21.792207   15.962570   20.063873 H          1 MOL1         0.0783
     121    O29     22.234245   13.951316   20.359361 O.3        1 MOL1        -0.3740
     122    C36     23.488124   15.410647   18.874721 C.3        1 MOL1         0.0138
     123    H58     23.596575   16.469369   18.603156 H          1 MOL1         0.0794
     124    H59     22.913963   14.926859   18.073270 H          1 MOL1         0.0794
     125    O30     24.781230   14.804438   18.997346 O.3        1 MOL1        -0.5486
     126    H60     25.208866   14.834073   18.113901 H          1 MOL1         0.3769
     127    C1      18.595755   17.412880   17.666727 C.2        1 MOL1        -0.2535
     128    H1      18.742722   16.672702   16.882870 H          1 MOL1         0.0845
     129    H2      17.581876   17.770904   17.832984 H          1 MOL1         0.0845
     130    C2      19.622217   17.861228   18.393941 C.2        1 MOL1        -0.1324
     131    H3      20.630097   17.490376   18.211746 H          1 MOL1         0.0833
     132    C3      19.495247   18.895893   19.488503 C.3        1 MOL1        -0.1813
     133    H4      18.481641   19.311906   19.501042 H          1 MOL1         0.0753
     134    H5      20.180302   19.726719   19.280603 H          1 MOL1         0.0753
     135    C4      19.804287   18.309017   20.879708 C.3        1 MOL1        -0.1855
     136    H6      19.030310   17.582940   21.154791 H          1 MOL1         0.0755
     137    H7      20.754895   17.763920   20.850357 H          1 MOL1         0.0755
     138    C5      19.894083   19.411258   21.954176 C.3        1 MOL1        -0.1855
     139    H8      18.990774   20.036105   21.946260 H          1 MOL1         0.0755
     140    H9      20.735399   20.070816   21.713332 H          1 MOL1         0.0755
     141    C6      20.097389   18.818813   23.370264 C.3        1 MOL1        -0.1958
     142    H10     19.186460   18.313869   23.710544 H          1 MOL1         0.0753
     143    H11     20.895384   18.069316   23.349074 H          1 MOL1         0.0753
     144    C7      20.484134   19.864702   24.409374 C.2        1 MOL1         0.6174
     145    O1      21.650022   19.911026   24.748374 O.co2      1 MOL1        -0.6695
     146    O2      19.656973   20.689505   24.748655 O.co2      1 MOL1        -0.6695
@<TRIPOS>BOND
    1     1     2    1
    2     1     3    1
    3     1     4    1
    4     4     5    1
    5     4     6    1
    6     6     7    1
    7     4     8    1
    8     8     9    1
    9     8    10    1
   10    10    11    1
   11     8    12    1
   12    12    13    1
   13    12    14    1
   14    14    15    1
   15     1    16    1
   16    14    16    1
   17    14    17    1
   18    17    18    1
   19    17    19    1
   20    17    20    1
   21    20    21    1
   22    22    23    1
   23    22    24    1
   24    22    25    1
   25    25    26    1
   26    25    27    1
   27    27    28    1
   28    25    29    1
   29    29    30    1
   30    29    31    1
   31    31    32    1
   32     3    33    1
   33    29    33    1
   34    33    34    1
   35    33    35    1
   36    35    36    1
   37    22    37    1
   38    35    37    1
   39    35    38    1
   40    38    39    1
   41    38    40    1
   42    38    41    1
   43    41    42    1
   44    43    44    1
   45    43    45    1
   46    43    46    1
   47    46    47    1
   48    46    48    1
   49    48    49    1
   50    46    50    1
   51    50    51    1
   52    50    52    1
   53    52    53    1
   54    24    54    1
   55    50    54    1
   56    54    55    1
   57    54    56    1
   58    56    57    1
   59    43    58    1
   60    56    58    1
   61    56    59    1
   62    59    60    1
   63    59    61    1
   64    59    62    1
   65    62    63    1
   66    64    65    1
   67    64    66    1
   68    64    67    1
   69    67    68    1
   70    67    69    1
   71    69    70    1
   72    67    71    1
   73    71    72    1
   74    71    73    1
   75    73    74    1
   76    45    75    1
   77    71    75    1
   78    75    76    1
   79    75    77    1
   80    77    78    1
   81    64    79    1
   82    77    79    1
   83    77    80    1
   84    80    81    1
   85    80    82    1
   86    80    83    1
   87    83    84    1
   88    85    86    1
   89    85    87    1
   90    85    88    1
   91    88    89    1
   92    88    90    1
   93    90    91    1
   94    88    92    1
   95    92    93    1
   96    92    94    1
   97    94    95    1
   98    66    96    1
   99    92    96    1
  100    96    97    1
  101    96    98    1
  102    98    99    1
  103    85   100    1
  104    98   100    1
  105    98   101    1
  106   101   102    1
  107   101   103    1
  108   101   104    1
  109   104   105    1
  110   106   107    1
  111    12   108    1
  112   106   108    1
  113   106   109    1
  114   109   110    1
  115   109   111    1
  116   111   112    1
  117   109   113    1
  118   113   114    1
  119   113   115    1
  120   115   116    1
  121    87   117    1
  122   113   117    1
  123   117   118    1
  124   117   119    1
  125   119   120    1
  126   106   121    1
  127   119   121    1
  128   119   122    1
  129   122   123    1
  130   122   124    1
  131   122   125    1
  132   125   126    1
  133   127   128    1
  134   127   129    1
  135   127   130    2
  136   130   131    1
  137   130   132    1
  138   132   133    1
  139   132   134    1
  140   132   135    1
  141   135   136    1
  142   135   137    1
  143   135   138    1
  144   138   139    1
  145   138   140    1
  146   138   141    1
  147   141   142    1
  148   141   143    1
  149   141   144    1
  150   144   145    1
  151   144   146    2
@<TRIPOS>SUBSTRUCTURE
       1 MOL1            1 RESIDUE      1      MOL     
       2 MOL1          146 RESIDUE      1      MOL     
@<SCITEGIC>MOL_PROPERTY
feprocess Rank
SciTegic.value.IntegerValue
6

@<SCITEGIC>MOL_PROPERTY
Conf_Id
SciTegic.value.IntegerValue
661

@<SCITEGIC>MOL_PROPERTY
Probability
SciTegic.value.DoubleValue
3.02

@<SCITEGIC>MOL_PROPERTY
G
SciTegic.value.DoubleValue
502.459

@<SCITEGIC>MOL_PROPERTY
E
SciTegic.value.DoubleValue
314.758

@<SCITEGIC>MOL_PROPERTY
-TS
SciTegic.value.DoubleValue
187.701

@<SCITEGIC>MOL_PROPERTY
U+W
SciTegic.value.DoubleValue
185.987

@<SCITEGIC>MOL_PROPERTY
U
SciTegic.value.DoubleValue
262.261

@<SCITEGIC>MOL_PROPERTY
W
SciTegic.value.DoubleValue
-76.274

@<SCITEGIC>MOL_PROPERTY
W(PB)
SciTegic.value.DoubleValue
-82.265

@<SCITEGIC>MOL_PROPERTY
W(SA)
SciTegic.value.DoubleValue
5.991

@<SCITEGIC>MOL_PROPERTY
Valence
SciTegic.value.DoubleValue
153.868

@<SCITEGIC>MOL_PROPERTY
Coulomb
SciTegic.value.DoubleValue
135.184

@<SCITEGIC>MOL_PROPERTY
VdW
SciTegic.value.DoubleValue
-26.791

@<SCITEGIC>MOL_PROPERTY
VdW6
SciTegic.value.DoubleValue
-185.532

@<SCITEGIC>MOL_PROPERTY
VdW12
SciTegic.value.DoubleValue
158.741

@<SCITEGIC>MOL_PROPERTY
Bond
SciTegic.value.DoubleValue
4.892

@<SCITEGIC>MOL_PROPERTY
Angle
SciTegic.value.DoubleValue
14.235

@<SCITEGIC>MOL_PROPERTY
Pdih
SciTegic.value.DoubleValue
134.698

@<SCITEGIC>MOL_PROPERTY
Idih
SciTegic.value.DoubleValue
0.042

@<SCITEGIC>MOL_PROPERTY
Tether
SciTegic.value.DoubleValue
0.000

@<TRIPOS>MOLECULE
CD_guest-s22_fast_vm2_rndm.mol2 : feprocess host+ligand conformer 7
         146         151           2
SMALL
USER_CHARGES
 
@<TRIPOS>ATOM
       1    C1      16.379770   15.308459   21.742309 C.3        1 MOL1         0.2972
       2    H1      15.325467   15.188559   22.023024 H          1 MOL1         0.0751
       3    O1      16.664034   16.650765   21.301928 O.3        1 MOL1        -0.3740
       4    C2      17.293935   14.972452   22.946180 C.3        1 MOL1         0.1003
       5    H2      17.110669   13.922460   23.209011 H          1 MOL1         0.0783
       6    O2      16.996778   15.800223   24.082273 O.3        1 MOL1        -0.5519
       7    H3      16.208713   16.346933   23.844882 H          1 MOL1         0.3769
       8    C3      18.782348   15.117509   22.560300 C.3        1 MOL1         0.1053
       9    H4      18.981504   16.182191   22.377745 H          1 MOL1         0.0783
      10    O3      19.584463   14.654375   23.651258 O.3        1 MOL1        -0.5519
      11    H5      19.191620   15.086111   24.443062 H          1 MOL1         0.3769
      12    C4      19.120791   14.330852   21.266983 C.3        1 MOL1         0.1018
      13    H6      19.202932   13.263754   21.510643 H          1 MOL1         0.0783
      14    C5      18.065557   14.535615   20.141939 C.3        1 MOL1         0.1043
      15    H7      18.194918   15.547491   19.739247 H          1 MOL1         0.0783
      16    O4      16.719841   14.407249   20.668258 O.3        1 MOL1        -0.3740
      17    C6      18.226414   13.553319   18.957290 C.3        1 MOL1         0.0138
      18    H8      19.134690   13.824310   18.402236 H          1 MOL1         0.0794
      19    H9      17.376039   13.685580   18.274991 H          1 MOL1         0.0794
      20    O5      18.310568   12.189917   19.390840 O.3        1 MOL1        -0.5486
      21    H10     18.330741   11.622814   18.589253 H          1 MOL1         0.3769
      22    C7      14.727677   20.326113   20.999157 C.3        1 MOL1         0.2972
      23    H11     14.017463   21.137861   20.799726 H          1 MOL1         0.0751
      24    O6      16.013780   20.822062   21.409699 O.3        1 MOL1        -0.3740
      25    C8      14.204814   19.412769   22.135285 C.3        1 MOL1         0.1003
      26    H12     13.249025   18.987740   21.802171 H          1 MOL1         0.0783
      27    O7      13.991979   20.166199   23.340046 O.3        1 MOL1        -0.5519
      28    H13     14.764715   20.777129   23.446779 H          1 MOL1         0.3769
      29    C9      15.184286   18.241297   22.395412 C.3        1 MOL1         0.1053
      30    H14     16.115266   18.655594   22.806350 H          1 MOL1         0.0783
      31    O8      14.592108   17.346774   23.343124 O.3        1 MOL1        -0.5519
      32    H15     14.187711   17.932236   24.023216 H          1 MOL1         0.3769
      33    C10     15.522609   17.497162   21.075199 C.3        1 MOL1         0.1018
      34    H16     14.647277   16.915354   20.759042 H          1 MOL1         0.0783
      35    C11     15.916971   18.474860   19.934777 C.3        1 MOL1         0.1043
      36    H17     16.883984   18.929653   20.187156 H          1 MOL1         0.0783
      37    O9      14.913605   19.513796   19.820752 O.3        1 MOL1        -0.3740
      38    C12     16.085984   17.791471   18.554031 C.3        1 MOL1         0.0138
      39    H18     17.053606   17.274246   18.535531 H          1 MOL1         0.0794
      40    H19     16.124052   18.570841   17.781514 H          1 MOL1         0.0794
      41    O10     15.040074   16.856744   18.261732 O.3        1 MOL1        -0.5486
      42    H20     15.185632   16.069370   18.830032 H          1 MOL1         0.3769
      43    C13     18.439989   24.138935   21.617151 C.3        1 MOL1         0.2972
      44    H21     18.880666   25.143792   21.649298 H          1 MOL1         0.0751
      45    O11     19.452751   23.115754   21.634787 O.3        1 MOL1        -0.3740
      46    C14     17.529205   23.928964   22.849313 C.3        1 MOL1         0.1003
      47    H22     16.727551   24.677569   22.804809 H          1 MOL1         0.0783
      48    O12     18.282700   24.106070   24.059139 O.3        1 MOL1        -0.5519
      49    H23     19.221995   23.894731   23.838725 H          1 MOL1         0.3769
      50    C15     16.881968   22.526198   22.814645 C.3        1 MOL1         0.1053
      51    H24     17.678700   21.784309   22.951228 H          1 MOL1         0.0783
      52    O13     15.929311   22.409315   23.876382 O.3        1 MOL1        -0.5519
      53    H25     16.392137   22.757527   24.670885 H          1 MOL1         0.3769
      54    C16     16.192684   22.247547   21.456721 C.3        1 MOL1         0.1018
      55    H26     15.240031   22.791815   21.428583 H          1 MOL1         0.0783
      56    C17     17.078295   22.639839   20.240686 C.3        1 MOL1         0.1043
      57    H27     17.890736   21.905526   20.179225 H          1 MOL1         0.0783
      58    O14     17.644828   23.962856   20.426520 O.3        1 MOL1        -0.3740
      59    C18     16.339400   22.613878   18.880468 C.3        1 MOL1         0.0138
      60    H28     16.107478   21.572365   18.620946 H          1 MOL1         0.0794
      61    H29     17.023783   22.991303   18.109054 H          1 MOL1         0.0794
      62    O15     15.139529   23.397301   18.890992 O.3        1 MOL1        -0.5486
      63    H30     14.433910   22.864456   19.312098 H          1 MOL1         0.3769
      64    C19     23.492992   22.518518   20.806660 C.3        1 MOL1         0.2972
      65    H31     24.529644   22.608345   20.457873 H          1 MOL1         0.0751
      66    O16     23.209361   21.190500   21.285676 O.3        1 MOL1        -0.3740
      67    C20     23.184594   23.547296   21.929550 C.3        1 MOL1         0.1003
      68    H32     23.332261   24.546637   21.500025 H          1 MOL1         0.0783
      69    O17     24.062667   23.392449   23.054826 O.3        1 MOL1        -0.5519
      70    H33     23.922032   22.477885   23.409506 H          1 MOL1         0.3769
      71    C21     21.706642   23.436949   22.377749 C.3        1 MOL1         0.1053
      72    H34     21.568424   22.460789   22.860948 H          1 MOL1         0.0783
      73    O18     21.402685   24.483809   23.305967 O.3        1 MOL1        -0.5519
      74    H35     22.157833   24.497417   23.935000 H          1 MOL1         0.3769
      75    C22     20.750583   23.516896   21.162101 C.3        1 MOL1         0.1018
      76    H36     20.753160   24.548067   20.785045 H          1 MOL1         0.0783
      77    C23     21.175640   22.556215   20.017091 C.3        1 MOL1         0.1043
      78    H37     21.030770   21.525019   20.363466 H          1 MOL1         0.0783
      79    O19     22.577693   22.778892   19.719430 O.3        1 MOL1        -0.3740
      80    C24     20.368874   22.702642   18.700484 C.3        1 MOL1         0.0138
      81    H38     19.514181   22.016487   18.737235 H          1 MOL1         0.0794
      82    H39     21.000667   22.368072   17.866951 H          1 MOL1         0.0794
      83    O20     19.907610   24.037668   18.459768 O.3        1 MOL1        -0.5486
      84    H40     19.144478   24.192909   19.064356 H          1 MOL1         0.3769
      85    C25     24.830974   17.574021   22.337469 C.3        1 MOL1         0.2972
      86    H41     25.440666   16.719800   22.659095 H          1 MOL1         0.0751
      87    O21     23.549682   17.141163   21.837800 O.3        1 MOL1        -0.3740
      88    C26     24.622514   18.544423   23.528823 C.3        1 MOL1         0.1003
      89    H42     25.609208   18.931297   23.814111 H          1 MOL1         0.0783
      90    O22     24.056624   17.842416   24.646976 O.3        1 MOL1        -0.5519
      91    H43     23.411938   18.444848   25.096741 H          1 MOL1         0.3769
      92    C27     23.750285   19.748861   23.101335 C.3        1 MOL1         0.1053
      93    H44     22.743678   19.372774   22.881215 H          1 MOL1         0.0783
      94    O23     23.688061   20.724982   24.150662 O.3        1 MOL1        -0.5519
      95    H45     23.068750   20.361697   24.837073 H          1 MOL1         0.3769
      96    C28     24.303540   20.422662   21.820101 C.3        1 MOL1         0.1018
      97    H46     25.160157   21.053556   22.091906 H          1 MOL1         0.0783
      98    C29     24.713446   19.404528   20.718494 C.3        1 MOL1         0.1043
      99    H47     23.785562   19.010054   20.288769 H          1 MOL1         0.0783
     100    O24     25.482234   18.305777   21.276397 O.3        1 MOL1        -0.3740
     101    C30     25.521826   20.031619   19.557448 C.3        1 MOL1         0.0138
     102    H48     24.848521   20.668512   18.967998 H          1 MOL1         0.0794
     103    H49     25.869351   19.227222   18.895387 H          1 MOL1         0.0794
     104    O25     26.633066   20.803300   20.028886 O.3        1 MOL1        -0.5486
     105    H50     27.146715   21.096992   19.245079 H          1 MOL1         0.3769
     106    C31     21.408099   13.954114   20.401673 C.3        1 MOL1         0.2972
     107    H51     20.997247   13.049312   19.935896 H          1 MOL1         0.0751
     108    O26     20.361531   14.875197   20.777418 O.3        1 MOL1        -0.3740
     109    C32     22.285267   13.604700   21.632359 C.3        1 MOL1         0.1003
     110    H52     23.128785   13.008800   21.260083 H          1 MOL1         0.0783
     111    O27     21.570825   12.829623   22.606768 O.3        1 MOL1        -0.5519
     112    H53     20.869678   13.421539   22.979397 H          1 MOL1         0.3769
     113    C33     22.864086   14.886015   22.279855 C.3        1 MOL1         0.1053
     114    H54     22.039544   15.432626   22.758309 H          1 MOL1         0.0783
     115    O28     23.831831   14.501973   23.262255 O.3        1 MOL1        -0.5519
     116    H55     23.377368   13.848200   23.836345 H          1 MOL1         0.3769
     117    C34     23.521681   15.831109   21.237845 C.3        1 MOL1         0.1018
     118    H56     24.530403   15.454955   21.024830 H          1 MOL1         0.0783
     119    C35     22.725423   15.950162   19.902791 C.3        1 MOL1         0.1043
     120    H57     21.848639   16.580212   20.083583 H          1 MOL1         0.0783
     121    O29     22.278224   14.639255   19.474811 O.3        1 MOL1        -0.3740
     122    C36     23.496491   16.617782   18.732700 C.3        1 MOL1         0.0138
     123    H58     23.233819   17.682451   18.707574 H          1 MOL1         0.0794
     124    H59     23.135863   16.189513   17.787965 H          1 MOL1         0.0794
     125    O30     24.919904   16.471842   18.823256 O.3        1 MOL1        -0.5486
     126    H60     25.218734   16.985249   19.609608 H          1 MOL1         0.3769
     127    C1      20.283707   19.002215   18.664831 C.2        1 MOL1        -0.2535
     128    H1      21.107049   19.712587   18.705754 H          1 MOL1         0.0845
     129    H2      19.859902   18.781197   17.687164 H          1 MOL1         0.0845
     130    C2      19.814605   18.414995   19.768468 C.2        1 MOL1        -0.1324
     131    H3      18.999821   17.697818   19.708490 H          1 MOL1         0.0833
     132    C3      20.351968   18.663252   21.158228 C.3        1 MOL1        -0.1813
     133    H4      21.254810   19.283236   21.110253 H          1 MOL1         0.0753
     134    H5      20.647691   17.707235   21.605239 H          1 MOL1         0.0753
     135    C4      19.297785   19.344546   22.056276 C.3        1 MOL1        -0.1855
     136    H6      18.942647   20.254811   21.557407 H          1 MOL1         0.0755
     137    H7      18.426949   18.686085   22.166688 H          1 MOL1         0.0755
     138    C5      19.839874   19.722193   23.454481 C.3        1 MOL1        -0.1855
     139    H8      19.069128   20.284499   23.997519 H          1 MOL1         0.0755
     140    H9      20.694719   20.400567   23.344483 H          1 MOL1         0.0755
     141    C6      20.253534   18.500111   24.316458 C.3        1 MOL1        -0.1958
     142    H10     19.396122   17.830960   24.456914 H          1 MOL1         0.0753
     143    H11     21.040904   17.918569   23.824636 H          1 MOL1         0.0753
     144    C7      20.778354   18.903915   25.690221 C.2        1 MOL1         0.6174
     145    O1      21.925684   19.305221   25.763572 O.co2      1 MOL1        -0.6695
     146    O2      20.024453   18.829847   26.640253 O.co2      1 MOL1        -0.6695
@<TRIPOS>BOND
    1     1     2    1
    2     1     3    1
    3     1     4    1
    4     4     5    1
    5     4     6    1
    6     6     7    1
    7     4     8    1
    8     8     9    1
    9     8    10    1
   10    10    11    1
   11     8    12    1
   12    12    13    1
   13    12    14    1
   14    14    15    1
   15     1    16    1
   16    14    16    1
   17    14    17    1
   18    17    18    1
   19    17    19    1
   20    17    20    1
   21    20    21    1
   22    22    23    1
   23    22    24    1
   24    22    25    1
   25    25    26    1
   26    25    27    1
   27    27    28    1
   28    25    29    1
   29    29    30    1
   30    29    31    1
   31    31    32    1
   32     3    33    1
   33    29    33    1
   34    33    34    1
   35    33    35    1
   36    35    36    1
   37    22    37    1
   38    35    37    1
   39    35    38    1
   40    38    39    1
   41    38    40    1
   42    38    41    1
   43    41    42    1
   44    43    44    1
   45    43    45    1
   46    43    46    1
   47    46    47    1
   48    46    48    1
   49    48    49    1
   50    46    50    1
   51    50    51    1
   52    50    52    1
   53    52    53    1
   54    24    54    1
   55    50    54    1
   56    54    55    1
   57    54    56    1
   58    56    57    1
   59    43    58    1
   60    56    58    1
   61    56    59    1
   62    59    60    1
   63    59    61    1
   64    59    62    1
   65    62    63    1
   66    64    65    1
   67    64    66    1
   68    64    67    1
   69    67    68    1
   70    67    69    1
   71    69    70    1
   72    67    71    1
   73    71    72    1
   74    71    73    1
   75    73    74    1
   76    45    75    1
   77    71    75    1
   78    75    76    1
   79    75    77    1
   80    77    78    1
   81    64    79    1
   82    77    79    1
   83    77    80    1
   84    80    81    1
   85    80    82    1
   86    80    83    1
   87    83    84    1
   88    85    86    1
   89    85    87    1
   90    85    88    1
   91    88    89    1
   92    88    90    1
   93    90    91    1
   94    88    92    1
   95    92    93    1
   96    92    94    1
   97    94    95    1
   98    66    96    1
   99    92    96    1
  100    96    97    1
  101    96    98    1
  102    98    99    1
  103    85   100    1
  104    98   100    1
  105    98   101    1
  106   101   102    1
  107   101   103    1
  108   101   104    1
  109   104   105    1
  110   106   107    1
  111    12   108    1
  112   106   108    1
  113   106   109    1
  114   109   110    1
  115   109   111    1
  116   111   112    1
  117   109   113    1
  118   113   114    1
  119   113   115    1
  120   115   116    1
  121    87   117    1
  122   113   117    1
  123   117   118    1
  124   117   119    1
  125   119   120    1
  126   106   121    1
  127   119   121    1
  128   119   122    1
  129   122   123    1
  130   122   124    1
  131   122   125    1
  132   125   126    1
  133   127   128    1
  134   127   129    1
  135   127   130    2
  136   130   131    1
  137   130   132    1
  138   132   133    1
  139   132   134    1
  140   132   135    1
  141   135   136    1
  142   135   137    1
  143   135   138    1
  144   138   139    1
  145   138   140    1
  146   138   141    1
  147   141   142    1
  148   141   143    1
  149   141   144    1
  150   144   145    1
  151   144   146    2
@<TRIPOS>SUBSTRUCTURE
       1 MOL1            1 RESIDUE      1      MOL     
       2 MOL1          146 RESIDUE      1      MOL     
@<SCITEGIC>MOL_PROPERTY
feprocess Rank
SciTegic.value.IntegerValue
7

@<SCITEGIC>MOL_PROPERTY
Conf_Id
SciTegic.value.IntegerValue
15

@<SCITEGIC>MOL_PROPERTY
Probability
SciTegic.value.DoubleValue
2.80

@<SCITEGIC>MOL_PROPERTY
G
SciTegic.value.DoubleValue
502.503

@<SCITEGIC>MOL_PROPERTY
E
SciTegic.value.DoubleValue
315.942

@<SCITEGIC>MOL_PROPERTY
-TS
SciTegic.value.DoubleValue
186.561

@<SCITEGIC>MOL_PROPERTY
U+W
SciTegic.value.DoubleValue
187.171

@<SCITEGIC>MOL_PROPERTY
U
SciTegic.value.DoubleValue
265.912

@<SCITEGIC>MOL_PROPERTY
W
SciTegic.value.DoubleValue
-78.747

@<SCITEGIC>MOL_PROPERTY
W(PB)
SciTegic.value.DoubleValue
-84.760

@<SCITEGIC>MOL_PROPERTY
W(SA)
SciTegic.value.DoubleValue
6.013

@<SCITEGIC>MOL_PROPERTY
Valence
SciTegic.value.DoubleValue
155.493

@<SCITEGIC>MOL_PROPERTY
Coulomb
SciTegic.value.DoubleValue
137.297

@<SCITEGIC>MOL_PROPERTY
VdW
SciTegic.value.DoubleValue
-26.878

@<SCITEGIC>MOL_PROPERTY
VdW6
SciTegic.value.DoubleValue
-185.706

@<SCITEGIC>MOL_PROPERTY
VdW12
SciTegic.value.DoubleValue
158.828

@<SCITEGIC>MOL_PROPERTY
Bond
SciTegic.value.DoubleValue
4.782

@<SCITEGIC>MOL_PROPERTY
Angle
SciTegic.value.DoubleValue
14.350

@<SCITEGIC>MOL_PROPERTY
Pdih
SciTegic.value.DoubleValue
136.359

@<SCITEGIC>MOL_PROPERTY
Idih
SciTegic.value.DoubleValue
0.002

@<SCITEGIC>MOL_PROPERTY
Tether
SciTegic.value.DoubleValue
0.000

@<TRIPOS>MOLECULE
CD_guest-s22_fast_vm2_rndm.mol2 : feprocess host+ligand conformer 8
         146         151           2
SMALL
USER_CHARGES
 
@<TRIPOS>ATOM
       1    C1      16.179343   15.322986   20.351400 C.3        1 MOL1         0.2972
       2    H1      15.149321   15.193665   19.994747 H          1 MOL1         0.0751
       3    O1      16.386208   16.623790   20.932746 O.3        1 MOL1        -0.3740
       4    C2      16.548805   14.257245   21.414816 C.3        1 MOL1         0.1003
       5    H2      16.485749   13.276086   20.926409 H          1 MOL1         0.0783
       6    O2      15.640763   14.282491   22.526989 O.3        1 MOL1        -0.5519
       7    H3      15.628882   15.209267   22.877926 H          1 MOL1         0.3769
       8    C3      18.007572   14.455890   21.899039 C.3        1 MOL1         0.1053
       9    H4      18.065802   15.414785   22.432982 H          1 MOL1         0.0783
      10    O3      18.346097   13.385303   22.787886 O.3        1 MOL1        -0.5519
      11    H5      17.539159   13.246964   23.334635 H          1 MOL1         0.3769
      12    C4      18.989900   14.510436   20.694854 C.3        1 MOL1         0.1018
      13    H6      19.107901   13.500811   20.281348 H          1 MOL1         0.0783
      14    C5      18.493257   15.465025   19.574618 C.3        1 MOL1         0.1043
      15    H7      18.568579   16.494421   19.944611 H          1 MOL1         0.0783
      16    O4      17.109561   15.175040   19.256241 O.3        1 MOL1        -0.3740
      17    C6      19.337447   15.402414   18.277757 C.3        1 MOL1         0.0138
      18    H8      20.280470   15.937490   18.453469 H          1 MOL1         0.0794
      19    H9      18.802464   15.944937   17.487210 H          1 MOL1         0.0794
      20    O5      19.614516   14.060829   17.857028 O.3        1 MOL1        -0.5486
      21    H10     20.278192   13.691969   18.479041 H          1 MOL1         0.3769
      22    C7      14.683917   20.204932   21.918228 C.3        1 MOL1         0.2972
      23    H11     14.055744   21.069185   22.170614 H          1 MOL1         0.0751
      24    O6      16.060529   20.582115   21.730832 O.3        1 MOL1        -0.3740
      25    C8      14.624295   19.158912   23.054807 C.3        1 MOL1         0.1003
      26    H12     13.587158   18.806974   23.129744 H          1 MOL1         0.0783
      27    O7      15.019296   19.748987   24.303855 O.3        1 MOL1        -0.5519
      28    H13     15.489950   20.590240   24.085475 H          1 MOL1         0.3769
      29    C9      15.522077   17.946636   22.720204 C.3        1 MOL1         0.1053
      30    H14     16.565537   18.286063   22.739160 H          1 MOL1         0.0783
      31    O8      15.334100   16.932320   23.711559 O.3        1 MOL1        -0.5519
      32    H15     15.385357   17.409636   24.569952 H          1 MOL1         0.3769
      33    C10     15.220371   17.377136   21.309439 C.3        1 MOL1         0.1018
      34    H16     14.320594   16.750330   21.366700 H          1 MOL1         0.0783
      35    C11     15.048017   18.477651   20.222323 C.3        1 MOL1         0.1043
      36    H17     16.048148   18.860687   19.985778 H          1 MOL1         0.0783
      37    O9      14.227882   19.573824   20.704334 O.3        1 MOL1        -0.3740
      38    C12     14.440781   17.952072   18.899938 C.3        1 MOL1         0.0138
      39    H18     15.184448   17.312846   18.404909 H          1 MOL1         0.0794
      40    H19     14.252308   18.806540   18.236055 H          1 MOL1         0.0794
      41    O10     13.232474   17.213202   19.117634 O.3        1 MOL1        -0.5486
      42    H20     12.865436   16.976239   18.238031 H          1 MOL1         0.3769
      43    C13     18.418214   23.986381   21.309537 C.3        1 MOL1         0.2972
      44    H21     18.779093   25.002525   21.105276 H          1 MOL1         0.0751
      45    O11     19.495567   23.103384   21.671757 O.3        1 MOL1        -0.3740
      46    C14     17.421246   24.013686   22.495383 C.3        1 MOL1         0.1003
      47    H22     16.588766   24.671709   22.214341 H          1 MOL1         0.0783
      48    O12     18.060637   24.531505   23.673017 O.3        1 MOL1        -0.5519
      49    H23     19.024563   24.324184   23.588675 H          1 MOL1         0.3769
      50    C15     16.846897   22.603305   22.768458 C.3        1 MOL1         0.1053
      51    H24     17.661067   21.970100   23.143135 H          1 MOL1         0.0783
      52    O13     15.813397   22.686058   23.755020 O.3        1 MOL1        -0.5519
      53    H25     16.178260   23.272234   24.455364 H          1 MOL1         0.3769
      54    C16     16.294878   21.973863   21.465923 C.3        1 MOL1         0.1018
      55    H26     15.374456   22.499736   21.179595 H          1 MOL1         0.0783
      56    C17     17.311157   22.058923   20.295481 C.3        1 MOL1         0.1043
      57    H27     18.169779   21.422504   20.542603 H          1 MOL1         0.0783
      58    O14     17.753171   23.432967   20.151499 O.3        1 MOL1        -0.3740
      59    C18     16.766754   21.559486   18.931389 C.3        1 MOL1         0.0138
      60    H28     16.989095   20.488972   18.842015 H          1 MOL1         0.0794
      61    H29     17.318496   22.063831   18.126841 H          1 MOL1         0.0794
      62    O15     15.358308   21.770458   18.769994 O.3        1 MOL1        -0.5486
      63    H30     14.897801   21.152887   19.384234 H          1 MOL1         0.3769
      64    C19     23.666684   22.755400   21.238136 C.3        1 MOL1         0.2972
      65    H31     24.698845   22.992162   20.950141 H          1 MOL1         0.0751
      66    O16     23.586372   21.444270   21.836200 O.3        1 MOL1        -0.3740
      67    C20     23.152553   23.809551   22.258574 C.3        1 MOL1         0.1003
      68    H32     23.276193   24.795033   21.791586 H          1 MOL1         0.0783
      69    O17     23.909987   23.770036   23.477275 O.3        1 MOL1        -0.5519
      70    H33     23.655349   22.925352   23.938726 H          1 MOL1         0.3769
      71    C21     21.649969   23.614282   22.569539 C.3        1 MOL1         0.1053
      72    H34     21.542668   22.665546   23.104208 H          1 MOL1         0.0783
      73    O18     21.173474   24.695186   23.379972 O.3        1 MOL1        -0.5519
      74    H35     21.833386   24.781426   24.103131 H          1 MOL1         0.3769
      75    C22     20.815927   23.513076   21.275262 C.3        1 MOL1         0.1018
      76    H36     20.815145   24.492085   20.778350 H          1 MOL1         0.0783
      77    C23     21.413377   22.448291   20.319783 C.3        1 MOL1         0.1043
      78    H37     21.355208   21.464914   20.805895 H          1 MOL1         0.0783
      79    O19     22.798123   22.793685   20.082751 O.3        1 MOL1        -0.3740
      80    C24     20.700832   22.330345   18.948710 C.3        1 MOL1         0.0138
      81    H38     19.855222   21.641377   19.055526 H          1 MOL1         0.0794
      82    H39     21.395253   21.871115   18.232953 H          1 MOL1         0.0794
      83    O20     20.230759   23.585910   18.444844 O.3        1 MOL1        -0.5486
      84    H40     19.378597   23.771800   18.902342 H          1 MOL1         0.3769
      85    C25     25.183656   17.658472   21.262150 C.3        1 MOL1         0.2972
      86    H41     25.794255   16.769432   21.058932 H          1 MOL1         0.0751
      87    O21     23.781108   17.328540   21.342287 O.3        1 MOL1        -0.3740
      88    C26     25.637245   18.357898   22.566794 C.3        1 MOL1         0.1003
      89    H42     26.664939   18.708540   22.407269 H          1 MOL1         0.0783
      90    O22     25.631961   17.437334   23.668742 O.3        1 MOL1        -0.5519
      91    H43     24.685023   17.218661   23.854888 H          1 MOL1         0.3769
      92    C27     24.750783   19.601512   22.837697 C.3        1 MOL1         0.1053
      93    H44     23.732345   19.250229   23.049065 H          1 MOL1         0.0783
      94    O23     25.253220   20.326307   23.966222 O.3        1 MOL1        -0.5519
      95    H45     24.476381   20.817524   24.342521 H          1 MOL1         0.3769
      96    C28     24.702874   20.551317   21.605561 C.3        1 MOL1         0.1018
      97    H46     25.649313   21.106848   21.586451 H          1 MOL1         0.0783
      98    C29     24.511958   19.793530   20.249342 C.3        1 MOL1         0.1043
      99    H47     23.460565   19.488369   20.170101 H          1 MOL1         0.0783
     100    O24     25.354544   18.615351   20.202931 O.3        1 MOL1        -0.3740
     101    C30     24.864141   20.610064   18.979338 C.3        1 MOL1         0.0138
     102    H48     24.033622   21.278928   18.732743 H          1 MOL1         0.0794
     103    H49     24.956408   19.911696   18.136665 H          1 MOL1         0.0794
     104    O25     26.077191   21.359695   19.127430 O.3        1 MOL1        -0.5486
     105    H50     26.259027   21.802112   18.269960 H          1 MOL1         0.3769
     106    C31     21.176662   14.117270   21.729024 C.3        1 MOL1         0.2972
     107    H51     20.715946   13.135038   21.893472 H          1 MOL1         0.0751
     108    O26     20.250768   15.046616   21.135866 O.3        1 MOL1        -0.3740
     109    C32     21.679894   14.708530   23.070312 C.3        1 MOL1         0.1003
     110    H52     22.425142   14.009680   23.471950 H          1 MOL1         0.0783
     111    O27     20.608981   14.850739   24.018429 O.3        1 MOL1        -0.5519
     112    H53     19.849102   14.319750   23.678249 H          1 MOL1         0.3769
     113    C33     22.372209   16.072283   22.843542 C.3        1 MOL1         0.1053
     114    H54     21.611888   16.788345   22.509035 H          1 MOL1         0.0783
     115    O28     22.940826   16.509126   24.081026 O.3        1 MOL1        -0.5519
     116    H55     22.215280   16.407475   24.737011 H          1 MOL1         0.3769
     117    C34     23.462643   15.980780   21.746396 C.3        1 MOL1         0.1018
     118    H56     24.334516   15.460097   22.164409 H          1 MOL1         0.0783
     119    C35     22.961021   15.236311   20.476959 C.3        1 MOL1         0.1043
     120    H57     22.236816   15.885941   19.967517 H          1 MOL1         0.0783
     121    O29     22.309944   13.993697   20.844597 O.3        1 MOL1        -0.3740
     122    C36     24.085531   14.917616   19.462605 C.3        1 MOL1         0.0138
     123    H58     24.414951   15.858798   19.001781 H          1 MOL1         0.0794
     124    H59     23.668151   14.291570   18.662655 H          1 MOL1         0.0794
     125    O30     25.201354   14.261730   20.078718 O.3        1 MOL1        -0.5486
     126    H60     25.835892   14.023207   19.368141 H          1 MOL1         0.3769
     127    C1      20.069697   18.935662   19.330660 C.2        1 MOL1        -0.2535
     128    H1      19.040138   19.036460   18.993559 H          1 MOL1         0.0845
     129    H2      20.855130   19.036581   18.584242 H          1 MOL1         0.0845
     130    C2      20.363454   18.691031   20.610055 C.2        1 MOL1        -0.1324
     131    H3      21.400439   18.583822   20.922183 H          1 MOL1         0.0833
     132    C3      19.328889   18.525996   21.703345 C.3        1 MOL1        -0.1813
     133    H4      19.437963   17.539627   22.171451 H          1 MOL1         0.0753
     134    H5      18.323648   18.550877   21.265563 H          1 MOL1         0.0753
     135    C4      19.415791   19.612772   22.797942 C.3        1 MOL1        -0.1855
     136    H6      19.251452   20.594396   22.344204 H          1 MOL1         0.0755
     137    H7      18.600509   19.454346   23.516468 H          1 MOL1         0.0755
     138    C5      20.765434   19.627479   23.549187 C.3        1 MOL1        -0.1855
     139    H8      21.556685   19.957097   22.865069 H          1 MOL1         0.0755
     140    H9      21.025193   18.613503   23.877998 H          1 MOL1         0.0755
     141    C6      20.737320   20.561577   24.785055 C.3        1 MOL1        -0.1958
     142    H10     20.342866   21.547079   24.516606 H          1 MOL1         0.0753
     143    H11     20.063276   20.150431   25.545783 H          1 MOL1         0.0753
     144    C7      22.113906   20.754378   25.418533 C.2        1 MOL1         0.6174
     145    O1      22.387140   20.093486   26.400511 O.co2      1 MOL1        -0.6695
     146    O2      22.883684   21.545231   24.902392 O.co2      1 MOL1        -0.6695
@<TRIPOS>BOND
    1     1     2    1
    2     1     3    1
    3     1     4    1
    4     4     5    1
    5     4     6    1
    6     6     7    1
    7     4     8    1
    8     8     9    1
    9     8    10    1
   10    10    11    1
   11     8    12    1
   12    12    13    1
   13    12    14    1
   14    14    15    1
   15     1    16    1
   16    14    16    1
   17    14    17    1
   18    17    18    1
   19    17    19    1
   20    17    20    1
   21    20    21    1
   22    22    23    1
   23    22    24    1
   24    22    25    1
   25    25    26    1
   26    25    27    1
   27    27    28    1
   28    25    29    1
   29    29    30    1
   30    29    31    1
   31    31    32    1
   32     3    33    1
   33    29    33    1
   34    33    34    1
   35    33    35    1
   36    35    36    1
   37    22    37    1
   38    35    37    1
   39    35    38    1
   40    38    39    1
   41    38    40    1
   42    38    41    1
   43    41    42    1
   44    43    44    1
   45    43    45    1
   46    43    46    1
   47    46    47    1
   48    46    48    1
   49    48    49    1
   50    46    50    1
   51    50    51    1
   52    50    52    1
   53    52    53    1
   54    24    54    1
   55    50    54    1
   56    54    55    1
   57    54    56    1
   58    56    57    1
   59    43    58    1
   60    56    58    1
   61    56    59    1
   62    59    60    1
   63    59    61    1
   64    59    62    1
   65    62    63    1
   66    64    65    1
   67    64    66    1
   68    64    67    1
   69    67    68    1
   70    67    69    1
   71    69    70    1
   72    67    71    1
   73    71    72    1
   74    71    73    1
   75    73    74    1
   76    45    75    1
   77    71    75    1
   78    75    76    1
   79    75    77    1
   80    77    78    1
   81    64    79    1
   82    77    79    1
   83    77    80    1
   84    80    81    1
   85    80    82    1
   86    80    83    1
   87    83    84    1
   88    85    86    1
   89    85    87    1
   90    85    88    1
   91    88    89    1
   92    88    90    1
   93    90    91    1
   94    88    92    1
   95    92    93    1
   96    92    94    1
   97    94    95    1
   98    66    96    1
   99    92    96    1
  100    96    97    1
  101    96    98    1
  102    98    99    1
  103    85   100    1
  104    98   100    1
  105    98   101    1
  106   101   102    1
  107   101   103    1
  108   101   104    1
  109   104   105    1
  110   106   107    1
  111    12   108    1
  112   106   108    1
  113   106   109    1
  114   109   110    1
  115   109   111    1
  116   111   112    1
  117   109   113    1
  118   113   114    1
  119   113   115    1
  120   115   116    1
  121    87   117    1
  122   113   117    1
  123   117   118    1
  124   117   119    1
  125   119   120    1
  126   106   121    1
  127   119   121    1
  128   119   122    1
  129   122   123    1
  130   122   124    1
  131   122   125    1
  132   125   126    1
  133   127   128    1
  134   127   129    1
  135   127   130    2
  136   130   131    1
  137   130   132    1
  138   132   133    1
  139   132   134    1
  140   132   135    1
  141   135   136    1
  142   135   137    1
  143   135   138    1
  144   138   139    1
  145   138   140    1
  146   138   141    1
  147   141   142    1
  148   141   143    1
  149   141   144    1
  150   144   145    1
  151   144   146    2
@<TRIPOS>SUBSTRUCTURE
       1 MOL1            1 RESIDUE      1      MOL     
       2 MOL1          146 RESIDUE      1      MOL     
@<SCITEGIC>MOL_PROPERTY
feprocess Rank
SciTegic.value.IntegerValue
8

@<SCITEGIC>MOL_PROPERTY
Conf_Id
SciTegic.value.IntegerValue
815

@<SCITEGIC>MOL_PROPERTY
Probability
SciTegic.value.DoubleValue
2.13

@<SCITEGIC>MOL_PROPERTY
G
SciTegic.value.DoubleValue
502.667

@<SCITEGIC>MOL_PROPERTY
E
SciTegic.value.DoubleValue
314.554

@<SCITEGIC>MOL_PROPERTY
-TS
SciTegic.value.DoubleValue
188.113

@<SCITEGIC>MOL_PROPERTY
U+W
SciTegic.value.DoubleValue
185.783

@<SCITEGIC>MOL_PROPERTY
U
SciTegic.value.DoubleValue
267.126

@<SCITEGIC>MOL_PROPERTY
W
SciTegic.value.DoubleValue
-81.343

@<SCITEGIC>MOL_PROPERTY
W(PB)
SciTegic.value.DoubleValue
-87.371

@<SCITEGIC>MOL_PROPERTY
W(SA)
SciTegic.value.DoubleValue
6.027

@<SCITEGIC>MOL_PROPERTY
Valence
SciTegic.value.DoubleValue
154.843

@<SCITEGIC>MOL_PROPERTY
Coulomb
SciTegic.value.DoubleValue
139.429

@<SCITEGIC>MOL_PROPERTY
VdW
SciTegic.value.DoubleValue
-27.147

@<SCITEGIC>MOL_PROPERTY
VdW6
SciTegic.value.DoubleValue
-186.857

@<SCITEGIC>MOL_PROPERTY
VdW12
SciTegic.value.DoubleValue
159.710

@<SCITEGIC>MOL_PROPERTY
Bond
SciTegic.value.DoubleValue
4.907

@<SCITEGIC>MOL_PROPERTY
Angle
SciTegic.value.DoubleValue
13.592

@<SCITEGIC>MOL_PROPERTY
Pdih
SciTegic.value.DoubleValue
136.342

@<SCITEGIC>MOL_PROPERTY
Idih
SciTegic.value.DoubleValue
0.001

@<SCITEGIC>MOL_PROPERTY
Tether
SciTegic.value.DoubleValue
0.000

