@<TRIPOS>MOLECULE
CD_guest-s15_fast_vm2_rndm.mol2 : feprocess host+ligand conformer 1
         155         160           2
SMALL
USER_CHARGES
 
@<TRIPOS>ATOM
       1    C1      16.407724   15.254542   21.910428 C.3        1 MOL1         0.2972
       2    H1      15.371654   15.118315   22.245518 H          1 MOL1         0.0751
       3    O1      16.617443   16.568856   21.355852 O.3        1 MOL1        -0.3740
       4    C2      17.388691   15.043422   23.092297 C.3        1 MOL1         0.1003
       5    H2      17.238885   14.018013   23.454735 H          1 MOL1         0.0783
       6    O2      17.135308   15.962636   24.166562 O.3        1 MOL1        -0.5519
       7    H3      16.215110   16.300061   24.048195 H          1 MOL1         0.3769
       8    C3      18.855257   15.178446   22.624229 C.3        1 MOL1         0.1053
       9    H4      19.026359   16.220454   22.330427 H          1 MOL1         0.0783
      10    O3      19.713084   14.843657   23.717898 O.3        1 MOL1        -0.5519
      11    H5      19.333979   15.333708   24.482543 H          1 MOL1         0.3769
      12    C4      19.149412   14.282623   21.393877 C.3        1 MOL1         0.1018
      13    H6      19.234295   13.239184   21.725077 H          1 MOL1         0.0783
      14    C5      18.049922   14.403374   20.301714 C.3        1 MOL1         0.1043
      15    H7      18.142804   15.392433   19.835167 H          1 MOL1         0.0783
      16    O4      16.732483   14.282654   20.894150 O.3        1 MOL1        -0.3740
      17    C6      18.182505   13.351814   19.174186 C.3        1 MOL1         0.0138
      18    H8      19.061610   13.603742   18.565581 H          1 MOL1         0.0794
      19    H9      17.302009   13.424672   18.521847 H          1 MOL1         0.0794
      20    O5      18.313959   12.020502   19.688145 O.3        1 MOL1        -0.5486
      21    H10     18.311280   11.403830   18.923783 H          1 MOL1         0.3769
      22    C7      14.641140   20.231656   21.207993 C.3        1 MOL1         0.2972
      23    H11     13.914256   21.038867   21.051739 H          1 MOL1         0.0751
      24    O6      15.938894   20.739802   21.573978 O.3        1 MOL1        -0.3740
      25    C8      14.178810   19.309122   22.360281 C.3        1 MOL1         0.1003
      26    H12     13.194695   18.906859   22.086731 H          1 MOL1         0.0783
      27    O7      14.065847   20.054320   23.583965 O.3        1 MOL1        -0.5519
      28    H13     14.798873   20.718983   23.585024 H          1 MOL1         0.3769
      29    C9      15.150660   18.116618   22.546375 C.3        1 MOL1         0.1053
      30    H14     16.098905   18.512241   22.934789 H          1 MOL1         0.0783
      31    O8      14.578346   17.212181   23.497260 O.3        1 MOL1        -0.5519
      32    H15     14.198056   17.791032   24.196981 H          1 MOL1         0.3769
      33    C10     15.446320   17.396297   21.198390 C.3        1 MOL1         0.1018
      34    H16     14.575318   16.801763   20.892042 H          1 MOL1         0.0783
      35    C11     15.786019   18.400664   20.067587 C.3        1 MOL1         0.1043
      36    H17     16.761440   18.849112   20.283281 H          1 MOL1         0.0783
      37    O9      14.764217   19.422655   20.021751 O.3        1 MOL1        -0.3740
      38    C12     15.858640   17.727778   18.678603 C.3        1 MOL1         0.0138
      39    H18     16.370436   16.760959   18.772632 H          1 MOL1         0.0794
      40    H19     14.839099   17.529761   18.321764 H          1 MOL1         0.0794
      41    O10     16.568809   18.557274   17.751913 O.3        1 MOL1        -0.5486
      42    H20     16.494334   18.144472   16.866076 H          1 MOL1         0.3769
      43    C13     18.335989   24.112306   21.241981 C.3        1 MOL1         0.2972
      44    H21     18.726913   25.127058   21.095117 H          1 MOL1         0.0751
      45    O11     19.393484   23.147085   21.424477 O.3        1 MOL1        -0.3740
      46    C14     17.424587   24.066644   22.493998 C.3        1 MOL1         0.1003
      47    H22     16.589182   24.757588   22.321288 H          1 MOL1         0.0783
      48    O12     18.141269   24.476819   23.669485 O.3        1 MOL1        -0.5519
      49    H23     19.069979   24.142362   23.583117 H          1 MOL1         0.3769
      50    C15     16.839619   22.648153   22.682842 C.3        1 MOL1         0.1053
      51    H24     17.670646   21.970719   22.914150 H          1 MOL1         0.0783
      52    O13     15.903511   22.648069   23.766261 O.3        1 MOL1        -0.5519
      53    H25     16.342464   23.160687   24.481092 H          1 MOL1         0.3769
      54    C16     16.147108   22.152537   21.389911 C.3        1 MOL1         0.1018
      55    H26     15.200229   22.697273   21.280205 H          1 MOL1         0.0783
      56    C17     17.026271   22.364437   20.123844 C.3        1 MOL1         0.1043
      57    H27     17.865515   21.659395   20.163217 H          1 MOL1         0.0783
      58    O14     17.544135   23.716681   20.103983 O.3        1 MOL1        -0.3740
      59    C18     16.277127   22.126961   18.790753 C.3        1 MOL1         0.0138
      60    H28     16.112838   21.049813   18.666074 H          1 MOL1         0.0794
      61    H29     16.923086   22.449384   17.963425 H          1 MOL1         0.0794
      62    O15     15.024236   22.822147   18.743024 O.3        1 MOL1        -0.5486
      63    H30     14.601599   22.609260   17.882978 H          1 MOL1         0.3769
      64    C19     23.515769   22.704999   21.043325 C.3        1 MOL1         0.2972
      65    H31     24.586631   22.864024   20.868050 H          1 MOL1         0.0751
      66    O16     23.209942   21.298548   21.167854 O.3        1 MOL1        -0.3740
      67    C20     23.040578   23.476903   22.304832 C.3        1 MOL1         0.1003
      68    H32     23.198380   24.544617   22.103486 H          1 MOL1         0.0783
      69    O17     23.788509   23.119734   23.476135 O.3        1 MOL1        -0.5519
      70    H33     23.567325   22.176806   23.682249 H          1 MOL1         0.3769
      71    C21     21.525534   23.258849   22.526991 C.3        1 MOL1         0.1053
      72    H34     21.352595   22.194262   22.732466 H          1 MOL1         0.0783
      73    O18     21.084563   24.048677   23.636010 O.3        1 MOL1        -0.5519
      74    H35     21.771544   23.927571   24.328773 H          1 MOL1         0.3769
      75    C22     20.734169   23.648633   21.255788 C.3        1 MOL1         0.1018
      76    H36     20.757577   24.742446   21.164103 H          1 MOL1         0.0783
      77    C23     21.327637   23.012276   19.968128 C.3        1 MOL1         0.1043
      78    H37     21.118563   21.936447   19.987236 H          1 MOL1         0.0783
      79    O19     22.762933   23.217813   19.924044 O.3        1 MOL1        -0.3740
      80    C24     20.715106   23.580685   18.665789 C.3        1 MOL1         0.0138
      81    H38     19.676901   23.232055   18.587582 H          1 MOL1         0.0794
      82    H39     21.263755   23.166151   17.809636 H          1 MOL1         0.0794
      83    O20     20.750102   25.013327   18.633639 O.3        1 MOL1        -0.5486
      84    H40     20.360464   25.301601   17.779840 H          1 MOL1         0.3769
      85    C25     24.778516   17.575148   22.067016 C.3        1 MOL1         0.2972
      86    H41     25.388785   16.720103   22.384726 H          1 MOL1         0.0751
      87    O21     23.642559   17.157400   21.283539 O.3        1 MOL1        -0.3740
      88    C26     24.284193   18.375223   23.299643 C.3        1 MOL1         0.1003
      89    H42     25.175654   18.733455   23.830934 H          1 MOL1         0.0783
      90    O22     23.499201   17.564355   24.188846 O.3        1 MOL1        -0.5519
      91    H43     23.698751   16.620519   23.978008 H          1 MOL1         0.3769
      92    C27     23.458033   19.602641   22.858767 C.3        1 MOL1         0.1053
      93    H44     22.534286   19.229545   22.405518 H          1 MOL1         0.0783
      94    O23     23.144751   20.382325   24.015599 O.3        1 MOL1        -0.5519
      95    H45     22.870110   19.718752   24.688475 H          1 MOL1         0.3769
      96    C28     24.201685   20.460914   21.802837 C.3        1 MOL1         0.1018
      97    H46     24.973849   21.048519   22.315015 H          1 MOL1         0.0783
      98    C29     24.853110   19.599115   20.683473 C.3        1 MOL1         0.1043
      99    H47     24.049957   19.224449   20.035188 H          1 MOL1         0.0783
     100    O24     25.564289   18.473200   21.256901 O.3        1 MOL1        -0.3740
     101    C30     25.836480   20.386791   19.783504 C.3        1 MOL1         0.0138
     102    H48     25.273979   21.146694   19.224413 H          1 MOL1         0.0794
     103    H49     26.259645   19.692877   19.045113 H          1 MOL1         0.0794
     104    O25     26.893586   21.005469   20.529690 O.3        1 MOL1        -0.5486
     105    H50     26.506116   21.693951   21.107764 H          1 MOL1         0.3769
     106    C31     21.400861   13.793412   20.519458 C.3        1 MOL1         0.2972
     107    H51     20.971210   12.829306   20.218437 H          1 MOL1         0.0751
     108    O26     20.371129   14.767334   20.801820 O.3        1 MOL1        -0.3740
     109    C32     22.341419   13.635614   21.743442 C.3        1 MOL1         0.1003
     110    H52     23.187891   13.017499   21.416458 H          1 MOL1         0.0783
     111    O27     21.699469   12.980932   22.846751 O.3        1 MOL1        -0.5519
     112    H53     20.988852   13.592130   23.166178 H          1 MOL1         0.3769
     113    C33     22.900880   15.013641   22.172252 C.3        1 MOL1         0.1053
     114    H54     22.063984   15.626725   22.534676 H          1 MOL1         0.0783
     115    O28     23.851696   14.817364   23.225178 O.3        1 MOL1        -0.5519
     116    H55     23.462970   14.110939   23.790012 H          1 MOL1         0.3769
     117    C34     23.558520   15.752162   20.972393 C.3        1 MOL1         0.1018
     118    H56     24.551511   15.322550   20.789775 H          1 MOL1         0.0783
     119    C35     22.718088   15.665960   19.667148 C.3        1 MOL1         0.1043
     120    H57     21.861943   16.341480   19.778027 H          1 MOL1         0.0783
     121    O29     22.219258   14.322512   19.455971 O.3        1 MOL1        -0.3740
     122    C36     23.493691   16.115062   18.403409 C.3        1 MOL1         0.0138
     123    H58     23.648796   17.200999   18.453830 H          1 MOL1         0.0794
     124    H59     22.869477   15.915572   17.522919 H          1 MOL1         0.0794
     125    O30     24.756917   15.454249   18.262834 O.3        1 MOL1        -0.5486
     126    H60     25.375572   15.851572   18.912299 H          1 MOL1         0.3769
     127    C1      18.648562   19.416021   24.672031 C.3        1 MOL1        -0.2426
     128    H1      17.977203   20.269346   24.514208 H          1 MOL1         0.0959
     129    H2      18.039988   18.503099   24.693012 H          1 MOL1         0.0959
     130    H3      19.114858   19.531117   25.658744 H          1 MOL1         0.0959
     131    C2      19.724529   19.337087   23.569123 C.3        1 MOL1        -0.1410
     132    H4      20.385463   18.480904   23.766945 H          1 MOL1         0.0948
     133    H5      20.349989   20.238850   23.605187 H          1 MOL1         0.0948
     134    C3      19.092969   19.197880   22.168675 C.3        1 MOL1        -0.1435
     135    H6      18.425911   18.328689   22.155574 H          1 MOL1         0.0948
     136    H7      18.468608   20.074068   21.961984 H          1 MOL1         0.0948
     137    C4      20.156535   19.059135   21.059696 C.3        1 MOL1        -0.1435
     138    H8      20.822700   18.216042   21.290578 H          1 MOL1         0.0948
     139    H9      20.775254   19.964792   21.039929 H          1 MOL1         0.0948
     140    C5      19.513581   18.827884   19.676888 C.3        1 MOL1        -0.1435
     141    H10     19.002455   17.857107   19.692694 H          1 MOL1         0.0948
     142    H11     18.744271   19.587764   19.488154 H          1 MOL1         0.0948
     143    C6      20.553821   18.884185   18.534513 C.3        1 MOL1        -0.1500
     144    H12     21.405480   18.236542   18.765238 H          1 MOL1         0.0948
     145    H13     20.952471   19.905772   18.483086 H          1 MOL1         0.0948
     146    C7      19.965147   18.502412   17.158341 C.3        1 MOL1         0.1162
     147    H14     19.043628   19.074397   17.008902 H          1 MOL1         0.0910
     148    C8      19.628410   17.001648   17.070842 C.3        1 MOL1        -0.2491
     149    H15     19.265694   16.745822   16.067885 H          1 MOL1         0.0959
     150    H16     18.838134   16.727225   17.777780 H          1 MOL1         0.0959
     151    H17     20.506091   16.379949   17.283918 H          1 MOL1         0.0959
     152    N1      20.893591   18.890810   16.041342 N.4        1 MOL1        -0.5987
     153    H18     21.097299   19.894075   16.053002 H          1 MOL1         0.3605
     154    H19     20.483439   18.674581   15.128280 H          1 MOL1         0.3605
     155    H20     21.784273   18.391400   16.102340 H          1 MOL1         0.3605
@<TRIPOS>BOND
    1     1     2    1
    2     1     3    1
    3     1     4    1
    4     4     5    1
    5     4     6    1
    6     6     7    1
    7     4     8    1
    8     8     9    1
    9     8    10    1
   10    10    11    1
   11     8    12    1
   12    12    13    1
   13    12    14    1
   14    14    15    1
   15     1    16    1
   16    14    16    1
   17    14    17    1
   18    17    18    1
   19    17    19    1
   20    17    20    1
   21    20    21    1
   22    22    23    1
   23    22    24    1
   24    22    25    1
   25    25    26    1
   26    25    27    1
   27    27    28    1
   28    25    29    1
   29    29    30    1
   30    29    31    1
   31    31    32    1
   32     3    33    1
   33    29    33    1
   34    33    34    1
   35    33    35    1
   36    35    36    1
   37    22    37    1
   38    35    37    1
   39    35    38    1
   40    38    39    1
   41    38    40    1
   42    38    41    1
   43    41    42    1
   44    43    44    1
   45    43    45    1
   46    43    46    1
   47    46    47    1
   48    46    48    1
   49    48    49    1
   50    46    50    1
   51    50    51    1
   52    50    52    1
   53    52    53    1
   54    24    54    1
   55    50    54    1
   56    54    55    1
   57    54    56    1
   58    56    57    1
   59    43    58    1
   60    56    58    1
   61    56    59    1
   62    59    60    1
   63    59    61    1
   64    59    62    1
   65    62    63    1
   66    64    65    1
   67    64    66    1
   68    64    67    1
   69    67    68    1
   70    67    69    1
   71    69    70    1
   72    67    71    1
   73    71    72    1
   74    71    73    1
   75    73    74    1
   76    45    75    1
   77    71    75    1
   78    75    76    1
   79    75    77    1
   80    77    78    1
   81    64    79    1
   82    77    79    1
   83    77    80    1
   84    80    81    1
   85    80    82    1
   86    80    83    1
   87    83    84    1
   88    85    86    1
   89    85    87    1
   90    85    88    1
   91    88    89    1
   92    88    90    1
   93    90    91    1
   94    88    92    1
   95    92    93    1
   96    92    94    1
   97    94    95    1
   98    66    96    1
   99    92    96    1
  100    96    97    1
  101    96    98    1
  102    98    99    1
  103    85   100    1
  104    98   100    1
  105    98   101    1
  106   101   102    1
  107   101   103    1
  108   101   104    1
  109   104   105    1
  110   106   107    1
  111    12   108    1
  112   106   108    1
  113   106   109    1
  114   109   110    1
  115   109   111    1
  116   111   112    1
  117   109   113    1
  118   113   114    1
  119   113   115    1
  120   115   116    1
  121    87   117    1
  122   113   117    1
  123   117   118    1
  124   117   119    1
  125   119   120    1
  126   106   121    1
  127   119   121    1
  128   119   122    1
  129   122   123    1
  130   122   124    1
  131   122   125    1
  132   125   126    1
  133   127   128    1
  134   127   129    1
  135   127   130    1
  136   127   131    1
  137   131   132    1
  138   131   133    1
  139   131   134    1
  140   134   135    1
  141   134   136    1
  142   134   137    1
  143   137   138    1
  144   137   139    1
  145   137   140    1
  146   140   141    1
  147   140   142    1
  148   140   143    1
  149   143   144    1
  150   143   145    1
  151   143   146    1
  152   146   147    1
  153   146   148    1
  154   148   149    1
  155   148   150    1
  156   148   151    1
  157   146   152    1
  158   152   153    1
  159   152   154    1
  160   152   155    1
@<TRIPOS>SUBSTRUCTURE
       1 MOL1            1 RESIDUE      1      MOL     
       2 MOL1          155 RESIDUE      1      MOL     
@<SCITEGIC>MOL_PROPERTY
feprocess Rank
SciTegic.value.IntegerValue
1

@<SCITEGIC>MOL_PROPERTY
Conf_Id
SciTegic.value.IntegerValue
868

@<SCITEGIC>MOL_PROPERTY
Probability
SciTegic.value.DoubleValue
63.27

@<SCITEGIC>MOL_PROPERTY
G
SciTegic.value.DoubleValue
559.899

@<SCITEGIC>MOL_PROPERTY
E
SciTegic.value.DoubleValue
351.566

@<SCITEGIC>MOL_PROPERTY
-TS
SciTegic.value.DoubleValue
208.334

@<SCITEGIC>MOL_PROPERTY
U+W
SciTegic.value.DoubleValue
214.747

@<SCITEGIC>MOL_PROPERTY
U
SciTegic.value.DoubleValue
306.525

@<SCITEGIC>MOL_PROPERTY
W
SciTegic.value.DoubleValue
-91.778

@<SCITEGIC>MOL_PROPERTY
W(PB)
SciTegic.value.DoubleValue
-97.951

@<SCITEGIC>MOL_PROPERTY
W(SA)
SciTegic.value.DoubleValue
6.173

@<SCITEGIC>MOL_PROPERTY
Valence
SciTegic.value.DoubleValue
146.882

@<SCITEGIC>MOL_PROPERTY
Coulomb
SciTegic.value.DoubleValue
187.995

@<SCITEGIC>MOL_PROPERTY
VdW
SciTegic.value.DoubleValue
-28.352

@<SCITEGIC>MOL_PROPERTY
VdW6
SciTegic.value.DoubleValue
-184.145

@<SCITEGIC>MOL_PROPERTY
VdW12
SciTegic.value.DoubleValue
155.793

@<SCITEGIC>MOL_PROPERTY
Bond
SciTegic.value.DoubleValue
4.519

@<SCITEGIC>MOL_PROPERTY
Angle
SciTegic.value.DoubleValue
11.818

@<SCITEGIC>MOL_PROPERTY
Pdih
SciTegic.value.DoubleValue
130.544

@<SCITEGIC>MOL_PROPERTY
Idih
SciTegic.value.DoubleValue
0.000

@<SCITEGIC>MOL_PROPERTY
Tether
SciTegic.value.DoubleValue
0.000

