@<TRIPOS>MOLECULE
CD_guest-4_fast_vm2_rndm.mol2 : feprocess host+ligand conformer 1
         142         148           2
SMALL
USER_CHARGES
 
@<TRIPOS>ATOM
       1    C1      16.116129   15.158944   20.949186 C.3        1 MOL1         0.2972
       2    H1      15.033365   15.046639   20.807966 H          1 MOL1         0.0751
       3    O1      16.472541   16.515185   21.285200 O.3        1 MOL1        -0.3740
       4    C2      16.639776   14.211919   22.060330 C.3        1 MOL1         0.1003
       5    H2      16.462939   13.182928   21.721034 H          1 MOL1         0.0783
       6    O2      15.949872   14.415237   23.302492 O.3        1 MOL1        -0.5519
       7    H3      16.035361   15.374477   23.535596 H          1 MOL1         0.3769
       8    C3      18.165660   14.396656   22.242252 C.3        1 MOL1         0.1053
       9    H4      18.345280   15.413311   22.613913 H          1 MOL1         0.0783
      10    O3      18.659590   13.442697   23.188449 O.3        1 MOL1        -0.5519
      11    H5      18.013191   13.458781   23.928996 H          1 MOL1         0.3769
      12    C4      18.911083   14.231643   20.894763 C.3        1 MOL1         0.1018
      13    H6      18.937299   13.161760   20.649928 H          1 MOL1         0.0783
      14    C5      18.244253   15.021988   19.732572 C.3        1 MOL1         0.1043
      15    H7      18.447707   16.090312   19.882629 H          1 MOL1         0.0783
      16    O4      16.809831   14.807917   19.733666 O.3        1 MOL1        -0.3740
      17    C6      18.788618   14.639299   18.335248 C.3        1 MOL1         0.0138
      18    H8      19.812325   15.024429   18.241303 H          1 MOL1         0.0794
      19    H9      18.180725   15.143894   17.572473 H          1 MOL1         0.0794
      20    O5      18.780679   13.221942   18.120598 O.3        1 MOL1        -0.5486
      21    H10     19.105061   13.057744   17.208399 H          1 MOL1         0.3769
      22    C7      15.024390   20.263216   22.182630 C.3        1 MOL1         0.2972
      23    H11     14.445419   21.153812   22.458741 H          1 MOL1         0.0751
      24    O6      16.339520   20.615976   21.715078 O.3        1 MOL1        -0.3740
      25    C8      15.165004   19.324813   23.405668 C.3        1 MOL1         0.1003
      26    H12     14.154322   19.002406   23.687631 H          1 MOL1         0.0783
      27    O7      15.767659   20.003217   24.517052 O.3        1 MOL1        -0.5519
      28    H13     16.665383   20.299948   24.221288 H          1 MOL1         0.3769
      29    C9      15.984981   18.068969   23.040886 C.3        1 MOL1         0.1053
      30    H14     17.011557   18.387324   22.819902 H          1 MOL1         0.0783
      31    O8      15.983154   17.173415   24.156591 O.3        1 MOL1        -0.5519
      32    H15     16.181807   17.741726   24.934201 H          1 MOL1         0.3769
      33    C10     15.418014   17.361657   21.785794 C.3        1 MOL1         0.1018
      34    H16     14.527470   16.788805   22.076874 H          1 MOL1         0.0783
      35    C11     15.070953   18.352777   20.638581 C.3        1 MOL1         0.1043
      36    H17     16.020455   18.674820   20.199058 H          1 MOL1         0.0783
      37    O9      14.363825   19.521819   21.132891 O.3        1 MOL1        -0.3740
      38    C12     14.235845   17.713062   19.503758 C.3        1 MOL1         0.0138
      39    H18     14.872450   17.000417   18.961884 H          1 MOL1         0.0794
      40    H19     13.947577   18.498365   18.792115 H          1 MOL1         0.0794
      41    O10     13.072854   17.042168   20.004243 O.3        1 MOL1        -0.5486
      42    H20     12.555553   16.725869   19.231559 H          1 MOL1         0.3769
      43    C13     18.539115   23.862582   20.381386 C.3        1 MOL1         0.2972
      44    H21     18.917581   24.770348   19.893910 H          1 MOL1         0.0751
      45    O11     19.594588   23.110271   21.010585 O.3        1 MOL1        -0.3740
      46    C14     17.498907   24.212708   21.473214 C.3        1 MOL1         0.1003
      47    H22     16.671725   24.738662   20.979099 H          1 MOL1         0.0783
      48    O12     18.073397   25.070851   22.472715 O.3        1 MOL1        -0.5519
      49    H23     18.928384   24.659183   22.758430 H          1 MOL1         0.3769
      50    C15     16.925702   22.929318   22.126515 C.3        1 MOL1         0.1053
      51    H24     17.722208   22.465735   22.724038 H          1 MOL1         0.0783
      52    O13     15.830981   23.298071   22.971382 O.3        1 MOL1        -0.5519
      53    H25     16.179161   24.013204   23.547377 H          1 MOL1         0.3769
      54    C16     16.457631   21.896012   21.064641 C.3        1 MOL1         0.1018
      55    H26     15.498038   22.231320   20.650517 H          1 MOL1         0.0783
      56    C17     17.480516   21.715024   19.906788 C.3        1 MOL1         0.1043
      57    H27     18.359568   21.190074   20.300846 H          1 MOL1         0.0783
      58    O14     17.886998   23.012725   19.414404 O.3        1 MOL1        -0.3740
      59    C18     16.962372   20.875912   18.709470 C.3        1 MOL1         0.0138
      60    H28     17.221415   19.824877   18.885925 H          1 MOL1         0.0794
      61    H29     17.505973   21.182337   17.805784 H          1 MOL1         0.0794
      62    O15     15.549664   20.999671   18.496675 O.3        1 MOL1        -0.5486
      63    H30     15.097920   20.642981   19.295110 H          1 MOL1         0.3769
      64    C19     23.681467   22.861663   21.408698 C.3        1 MOL1         0.2972
      65    H31     24.769738   23.002892   21.434572 H          1 MOL1         0.0751
      66    O16     23.318817   21.472837   21.553856 O.3        1 MOL1        -0.3740
      67    C20     22.982682   23.679341   22.525252 C.3        1 MOL1         0.1003
      68    H32     23.176639   24.740604   22.321964 H          1 MOL1         0.0783
      69    O17     23.498465   23.353105   23.824749 O.3        1 MOL1        -0.5519
      70    H33     23.410684   22.373197   23.941877 H          1 MOL1         0.3769
      71    C21     21.452149   23.456663   22.471351 C.3        1 MOL1         0.1053
      72    H34     21.249949   22.407443   22.720827 H          1 MOL1         0.0783
      73    O18     20.808002   24.312577   23.421068 O.3        1 MOL1        -0.5519
      74    H35     21.335758   24.223393   24.245587 H          1 MOL1         0.3769
      75    C22     20.891137   23.731289   21.053980 C.3        1 MOL1         0.1018
      76    H36     20.832456   24.818684   20.912868 H          1 MOL1         0.0783
      77    C23     21.744179   23.087779   19.922936 C.3        1 MOL1         0.1043
      78    H37     21.562223   22.004846   19.933178 H          1 MOL1         0.0783
      79    O19     23.154846   23.330862   20.150260 O.3        1 MOL1        -0.3740
      80    C24     21.383078   23.599336   18.507397 C.3        1 MOL1         0.0138
      81    H38     20.402649   23.190717   18.228083 H          1 MOL1         0.0794
      82    H39     22.116485   23.200682   17.793769 H          1 MOL1         0.0794
      83    O20     21.349959   25.030784   18.440412 O.3        1 MOL1        -0.5486
      84    H40     21.185023   25.281107   17.505108 H          1 MOL1         0.3769
      85    C25     24.794550   17.690913   22.255961 C.3        1 MOL1         0.2972
      86    H41     25.376999   16.794530   22.504157 H          1 MOL1         0.0751
      87    O21     23.572490   17.361842   21.566405 O.3        1 MOL1        -0.3740
      88    C26     24.440271   18.480344   23.540762 C.3        1 MOL1         0.1003
      89    H42     25.386302   18.800915   23.996270 H          1 MOL1         0.0783
      90    O22     23.717576   17.667610   24.479356 O.3        1 MOL1        -0.5519
      91    H43     23.765441   16.736310   24.154209 H          1 MOL1         0.3769
      92    C27     23.620693   19.742922   23.189976 C.3        1 MOL1         0.1053
      93    H44     22.650979   19.417343   22.794628 H          1 MOL1         0.0783
      94    O23     23.421479   20.511894   24.379194 O.3        1 MOL1        -0.5519
      95    H45     23.199961   19.843086   25.065535 H          1 MOL1         0.3769
      96    C28     24.322602   20.597563   22.104649 C.3        1 MOL1         0.1018
      97    H46     25.141851   21.154663   22.578364 H          1 MOL1         0.0783
      98    C29     24.868197   19.746240   20.921286 C.3        1 MOL1         0.1043
      99    H47     24.011818   19.427311   20.313169 H          1 MOL1         0.0783
     100    O24     25.562888   18.569217   21.407527 O.3        1 MOL1        -0.3740
     101    C30     25.822734   20.529773   19.988588 C.3        1 MOL1         0.0138
     102    H48     25.232975   21.266446   19.426254 H          1 MOL1         0.0794
     103    H49     26.252073   19.830312   19.258820 H          1 MOL1         0.0794
     104    O25     26.864260   21.194452   20.715025 O.3        1 MOL1        -0.5486
     105    H50     27.469034   21.605468   20.059224 H          1 MOL1         0.3769
     106    C31     21.332845   13.967846   20.634053 C.3        1 MOL1         0.2972
     107    H51     20.999042   12.990687   20.262327 H          1 MOL1         0.0751
     108    O26     20.230198   14.774513   21.093639 O.3        1 MOL1        -0.3740
     109    C32     22.299520   13.791318   21.831779 C.3        1 MOL1         0.1003
     110    H52     23.158850   13.207176   21.477564 H          1 MOL1         0.0783
     111    O27     21.658256   13.084084   22.905894 O.3        1 MOL1        -0.5519
     112    H53     20.723176   13.407673   22.955271 H          1 MOL1         0.3769
     113    C33     22.825264   15.162309   22.326779 C.3        1 MOL1         0.1053
     114    H54     21.980143   15.717582   22.752861 H          1 MOL1         0.0783
     115    O28     23.814606   14.938673   23.336850 O.3        1 MOL1        -0.5519
     116    H55     23.452058   14.205498   23.884831 H          1 MOL1         0.3769
     117    C34     23.408457   15.993387   21.150531 C.3        1 MOL1         0.1018
     118    H56     24.363791   15.553409   20.836871 H          1 MOL1         0.0783
     119    C35     22.440823   16.032385   19.936906 C.3        1 MOL1         0.1043
     120    H57     21.554264   16.614623   20.218798 H          1 MOL1         0.0783
     121    O29     22.034657   14.686502   19.596569 O.3        1 MOL1        -0.3740
     122    C36     23.040760   16.709454   18.679076 C.3        1 MOL1         0.0138
     123    H58     23.020950   17.797228   18.827566 H          1 MOL1         0.0794
     124    H59     22.392030   16.489451   17.820911 H          1 MOL1         0.0794
     125    O30     24.381995   16.286861   18.404534 O.3        1 MOL1        -0.5486
     126    H60     24.959995   16.684771   19.091165 H          1 MOL1         0.3769
     127    C1      20.011108   18.032549   22.444790 C.3        1 MOL1        -0.1689
     128    H1      19.381537   17.507342   21.714914 H          1 MOL1         0.0830
     129    H2      21.059223   17.852607   22.182844 H          1 MOL1         0.0830
     130    C2      19.756799   17.551947   23.880762 C.3        1 MOL1        -0.1689
     131    H3      18.694101   17.319291   24.014170 H          1 MOL1         0.0830
     132    H4      20.334320   16.652787   24.131890 H          1 MOL1         0.0830
     133    C3      20.131041   18.750880   24.765885 C.3        1 MOL1        -0.1765
     134    H5      21.202228   18.710320   24.996703 H          1 MOL1         0.0830
     135    H6      19.583964   18.739378   25.717353 H          1 MOL1         0.0830
     136    C4      19.841217   20.012078   23.931160 C.3        1 MOL1         0.1214
     137    H7      20.663966   20.730167   24.049813 H          1 MOL1         0.0787
     138    C5      19.740814   19.549719   22.462785 C.3        1 MOL1        -0.1765
     139    H8      18.738808   19.750700   22.071269 H          1 MOL1         0.0830
     140    H9      20.457221   20.088122   21.829437 H          1 MOL1         0.0830
     141    O1      18.610805   20.593358   24.346891 O.3        1 MOL1        -0.5512
     142    H10     18.748765   20.896352   25.266670 H          1 MOL1         0.3776
@<TRIPOS>BOND
    1     1     2    1
    2     1     3    1
    3     1     4    1
    4     4     5    1
    5     4     6    1
    6     6     7    1
    7     4     8    1
    8     8     9    1
    9     8    10    1
   10    10    11    1
   11     8    12    1
   12    12    13    1
   13    12    14    1
   14    14    15    1
   15     1    16    1
   16    14    16    1
   17    14    17    1
   18    17    18    1
   19    17    19    1
   20    17    20    1
   21    20    21    1
   22    22    23    1
   23    22    24    1
   24    22    25    1
   25    25    26    1
   26    25    27    1
   27    27    28    1
   28    25    29    1
   29    29    30    1
   30    29    31    1
   31    31    32    1
   32     3    33    1
   33    29    33    1
   34    33    34    1
   35    33    35    1
   36    35    36    1
   37    22    37    1
   38    35    37    1
   39    35    38    1
   40    38    39    1
   41    38    40    1
   42    38    41    1
   43    41    42    1
   44    43    44    1
   45    43    45    1
   46    43    46    1
   47    46    47    1
   48    46    48    1
   49    48    49    1
   50    46    50    1
   51    50    51    1
   52    50    52    1
   53    52    53    1
   54    24    54    1
   55    50    54    1
   56    54    55    1
   57    54    56    1
   58    56    57    1
   59    43    58    1
   60    56    58    1
   61    56    59    1
   62    59    60    1
   63    59    61    1
   64    59    62    1
   65    62    63    1
   66    64    65    1
   67    64    66    1
   68    64    67    1
   69    67    68    1
   70    67    69    1
   71    69    70    1
   72    67    71    1
   73    71    72    1
   74    71    73    1
   75    73    74    1
   76    45    75    1
   77    71    75    1
   78    75    76    1
   79    75    77    1
   80    77    78    1
   81    64    79    1
   82    77    79    1
   83    77    80    1
   84    80    81    1
   85    80    82    1
   86    80    83    1
   87    83    84    1
   88    85    86    1
   89    85    87    1
   90    85    88    1
   91    88    89    1
   92    88    90    1
   93    90    91    1
   94    88    92    1
   95    92    93    1
   96    92    94    1
   97    94    95    1
   98    66    96    1
   99    92    96    1
  100    96    97    1
  101    96    98    1
  102    98    99    1
  103    85   100    1
  104    98   100    1
  105    98   101    1
  106   101   102    1
  107   101   103    1
  108   101   104    1
  109   104   105    1
  110   106   107    1
  111    12   108    1
  112   106   108    1
  113   106   109    1
  114   109   110    1
  115   109   111    1
  116   111   112    1
  117   109   113    1
  118   113   114    1
  119   113   115    1
  120   115   116    1
  121    87   117    1
  122   113   117    1
  123   117   118    1
  124   117   119    1
  125   119   120    1
  126   106   121    1
  127   119   121    1
  128   119   122    1
  129   122   123    1
  130   122   124    1
  131   122   125    1
  132   125   126    1
  133   127   128    1
  134   127   129    1
  135   127   130    1
  136   130   131    1
  137   130   132    1
  138   130   133    1
  139   133   134    1
  140   133   135    1
  141   133   136    1
  142   136   137    1
  143   127   138    1
  144   136   138    1
  145   138   139    1
  146   138   140    1
  147   136   141    1
  148   141   142    1
@<TRIPOS>SUBSTRUCTURE
       1 MOL1            1 RESIDUE      1      MOL     
       2 MOL1          142 RESIDUE      1      MOL     
@<SCITEGIC>MOL_PROPERTY
feprocess Rank
SciTegic.value.IntegerValue
1

@<SCITEGIC>MOL_PROPERTY
Conf_Id
SciTegic.value.IntegerValue
67

@<SCITEGIC>MOL_PROPERTY
Probability
SciTegic.value.DoubleValue
67.73

@<SCITEGIC>MOL_PROPERTY
G
SciTegic.value.DoubleValue
555.109

@<SCITEGIC>MOL_PROPERTY
E
SciTegic.value.DoubleValue
370.695

@<SCITEGIC>MOL_PROPERTY
-TS
SciTegic.value.DoubleValue
184.413

@<SCITEGIC>MOL_PROPERTY
U+W
SciTegic.value.DoubleValue
245.501

@<SCITEGIC>MOL_PROPERTY
U
SciTegic.value.DoubleValue
284.535

@<SCITEGIC>MOL_PROPERTY
W
SciTegic.value.DoubleValue
-39.034

@<SCITEGIC>MOL_PROPERTY
W(PB)
SciTegic.value.DoubleValue
-45.176

@<SCITEGIC>MOL_PROPERTY
W(SA)
SciTegic.value.DoubleValue
6.143

@<SCITEGIC>MOL_PROPERTY
Valence
SciTegic.value.DoubleValue
156.622

@<SCITEGIC>MOL_PROPERTY
Coulomb
SciTegic.value.DoubleValue
151.010

@<SCITEGIC>MOL_PROPERTY
VdW
SciTegic.value.DoubleValue
-23.097

@<SCITEGIC>MOL_PROPERTY
VdW6
SciTegic.value.DoubleValue
-171.076

@<SCITEGIC>MOL_PROPERTY
VdW12
SciTegic.value.DoubleValue
147.979

@<SCITEGIC>MOL_PROPERTY
Bond
SciTegic.value.DoubleValue
4.491

@<SCITEGIC>MOL_PROPERTY
Angle
SciTegic.value.DoubleValue
14.246

@<SCITEGIC>MOL_PROPERTY
Pdih
SciTegic.value.DoubleValue
137.885

@<SCITEGIC>MOL_PROPERTY
Idih
SciTegic.value.DoubleValue
0.000

@<SCITEGIC>MOL_PROPERTY
Tether
SciTegic.value.DoubleValue
0.000

@<TRIPOS>MOLECULE
CD_guest-4_fast_vm2_rndm.mol2 : feprocess host+ligand conformer 2
         142         148           2
SMALL
USER_CHARGES
 
@<TRIPOS>ATOM
       1    C1      16.375169   15.236644   20.390704 C.3        1 MOL1         0.2972
       2    H1      15.413457   15.077771   19.886002 H          1 MOL1         0.0751
       3    O1      16.477197   16.560242   20.950716 O.3        1 MOL1        -0.3740
       4    C2      16.559053   14.229546   21.551270 C.3        1 MOL1         0.1003
       5    H2      16.519563   13.220970   21.119772 H          1 MOL1         0.0783
       6    O2      15.505474   14.373392   22.518577 O.3        1 MOL1        -0.5519
       7    H3      15.407529   15.341826   22.703220 H          1 MOL1         0.3769
       8    C3      17.941848   14.406240   22.228779 C.3        1 MOL1         0.1053
       9    H4      17.933029   15.359784   22.772879 H          1 MOL1         0.0783
      10    O3      18.145100   13.323009   23.141760 O.3        1 MOL1        -0.5519
      11    H5      17.342064   13.307738   23.706705 H          1 MOL1         0.3769
      12    C4      19.098420   14.456070   21.192665 C.3        1 MOL1         0.1018
      13    H6      19.293410   13.435751   20.838062 H          1 MOL1         0.0783
      14    C5      18.776567   15.368996   19.974800 C.3        1 MOL1         0.1043
      15    H7      18.782065   16.412746   20.313273 H          1 MOL1         0.0783
      16    O4      17.463818   15.043278   19.464222 O.3        1 MOL1        -0.3740
      17    C6      19.789312   15.273722   18.803683 C.3        1 MOL1         0.0138
      18    H8      20.560620   16.039593   18.948905 H          1 MOL1         0.0794
      19    H9      19.270281   15.530604   17.870567 H          1 MOL1         0.0794
      20    O5      20.400166   13.981945   18.683049 O.3        1 MOL1        -0.5486
      21    H10     20.915744   13.819954   19.505944 H          1 MOL1         0.3769
      22    C7      14.704732   20.283165   20.891607 C.3        1 MOL1         0.2972
      23    H11     14.051202   21.158500   20.784129 H          1 MOL1         0.0751
      24    O6      16.072406   20.669359   21.144224 O.3        1 MOL1        -0.3740
      25    C8      14.213617   19.352807   22.032135 C.3        1 MOL1         0.1003
      26    H12     13.221721   18.981930   21.742559 H          1 MOL1         0.0783
      27    O7      14.098716   20.049467   23.281602 O.3        1 MOL1        -0.5519
      28    H13     14.994434   20.412403   23.498875 H          1 MOL1         0.3769
      29    C9      15.155201   18.132314   22.167024 C.3        1 MOL1         0.1053
      30    H14     16.140973   18.492108   22.489857 H          1 MOL1         0.0783
      31    O8      14.629345   17.220743   23.138135 O.3        1 MOL1        -0.5519
      32    H15     14.362331   17.782150   23.899489 H          1 MOL1         0.3769
      33    C10     15.322999   17.406555   20.809661 C.3        1 MOL1         0.1018
      34    H16     14.409746   16.827825   20.618008 H          1 MOL1         0.0783
      35    C11     15.597057   18.380228   19.627199 C.3        1 MOL1         0.1043
      36    H17     16.626668   18.750355   19.721008 H          1 MOL1         0.0783
      37    O9      14.683324   19.504697   19.677262 O.3        1 MOL1        -0.3740
      38    C12     15.471384   17.716625   18.234369 C.3        1 MOL1         0.0138
      39    H18     16.328210   17.045833   18.087707 H          1 MOL1         0.0794
      40    H19     15.537558   18.499381   17.466919 H          1 MOL1         0.0794
      41    O10     14.248647   16.982089   18.092179 O.3        1 MOL1        -0.5486
      42    H20     14.210298   16.644092   17.170838 H          1 MOL1         0.3769
      43    C13     18.502914   23.871342   22.113112 C.3        1 MOL1         0.2972
      44    H21     18.934885   24.831863   22.421638 H          1 MOL1         0.0751
      45    O11     19.484273   23.023261   21.481766 O.3        1 MOL1        -0.3740
      46    C14     17.897717   23.131102   23.333853 C.3        1 MOL1         0.1003
      47    H22     17.093255   23.765588   23.728287 H          1 MOL1         0.0783
      48    O12     18.868771   22.912037   24.368729 O.3        1 MOL1        -0.5519
      49    H23     19.649892   23.478483   24.159789 H          1 MOL1         0.3769
      50    C15     17.277584   21.784421   22.900291 C.3        1 MOL1         0.1053
      51    H24     18.089488   21.133021   22.555808 H          1 MOL1         0.0783
      52    O13     16.630018   21.192687   24.029635 O.3        1 MOL1        -0.5519
      53    H25     17.259998   21.338901   24.770949 H          1 MOL1         0.3769
      54    C16     16.276483   21.969917   21.732696 C.3        1 MOL1         0.1018
      55    H26     15.345721   22.390254   22.136486 H          1 MOL1         0.0783
      56    C17     16.832621   22.890801   20.607801 C.3        1 MOL1         0.1043
      57    H27     17.602576   22.330161   20.061740 H          1 MOL1         0.0783
      58    O14     17.431450   24.086602   21.170713 O.3        1 MOL1        -0.3740
      59    C18     15.760976   23.318404   19.576366 C.3        1 MOL1         0.0138
      60    H28     15.489793   22.441813   18.972429 H          1 MOL1         0.0794
      61    H29     16.204604   24.058119   18.896535 H          1 MOL1         0.0794
      62    O15     14.590028   23.856622   20.203714 O.3        1 MOL1        -0.5486
      63    H30     13.992053   24.176704   19.493257 H          1 MOL1         0.3769
      64    C19     23.619409   22.783897   21.093515 C.3        1 MOL1         0.2972
      65    H31     24.679632   22.981899   20.891299 H          1 MOL1         0.0751
      66    O16     23.393010   21.408714   21.455903 O.3        1 MOL1        -0.3740
      67    C20     23.143112   23.658301   22.276364 C.3        1 MOL1         0.1003
      68    H32     23.295788   24.707989   21.993363 H          1 MOL1         0.0783
      69    O17     23.913577   23.365556   23.453327 O.3        1 MOL1        -0.5519
      70    H33     24.136788   22.402471   23.417234 H          1 MOL1         0.3769
      71    C21     21.635246   23.451941   22.555966 C.3        1 MOL1         0.1053
      72    H34     21.497591   22.435158   22.944543 H          1 MOL1         0.0783
      73    O18     21.225539   24.408377   23.539142 O.3        1 MOL1        -0.5519
      74    H35     21.958866   24.422237   24.196036 H          1 MOL1         0.3769
      75    C22     20.790789   23.591458   21.258969 C.3        1 MOL1         0.1018
      76    H36     20.724310   24.651918   20.984430 H          1 MOL1         0.0783
      77    C23     21.401572   22.794204   20.073082 C.3        1 MOL1         0.1043
      78    H37     21.282126   21.723770   20.285656 H          1 MOL1         0.0783
      79    O19     22.812608   23.096751   19.939372 O.3        1 MOL1        -0.3740
      80    C24     20.702696   23.064194   18.717161 C.3        1 MOL1         0.0138
      81    H38     19.724459   22.565070   18.723457 H          1 MOL1         0.0794
      82    H39     21.297047   22.600567   17.918902 H          1 MOL1         0.0794
      83    O20     20.529146   24.461047   18.450721 O.3        1 MOL1        -0.5486
      84    H40     19.814352   24.786039   19.039443 H          1 MOL1         0.3769
      85    C25     25.004649   17.600540   20.987000 C.3        1 MOL1         0.2972
      86    H41     25.631172   16.731121   20.749457 H          1 MOL1         0.0751
      87    O21     23.676336   17.205228   21.383154 O.3        1 MOL1        -0.3740
      88    C26     25.634552   18.458763   22.117334 C.3        1 MOL1         0.1003
      89    H42     26.601727   18.822410   21.746606 H          1 MOL1         0.0783
      90    O22     25.854698   17.692334   23.311041 O.3        1 MOL1        -0.5519
      91    H43     24.975635   17.337275   23.598992 H          1 MOL1         0.3769
      92    C27     24.746526   19.691406   22.416919 C.3        1 MOL1         0.1053
      93    H44     23.794998   19.336310   22.834850 H          1 MOL1         0.0783
      94    O23     25.402802   20.543526   23.362423 O.3        1 MOL1        -0.5519
      95    H45     25.740467   19.940656   24.061365 H          1 MOL1         0.3769
      96    C28     24.444386   20.484391   21.121603 C.3        1 MOL1         0.1018
      97    H46     25.365681   20.998158   20.817564 H          1 MOL1         0.0783
      98    C29     23.956653   19.565205   19.964876 C.3        1 MOL1         0.1043
      99    H47     22.962592   19.181899   20.223315 H          1 MOL1         0.0783
     100    O24     24.873694   18.450624   19.825358 O.3        1 MOL1        -0.3740
     101    C30     23.813104   20.261111   18.587453 C.3        1 MOL1         0.0138
     102    H48     22.818072   20.720403   18.532666 H          1 MOL1         0.0794
     103    H49     23.851879   19.493004   17.803590 H          1 MOL1         0.0794
     104    O25     24.812756   21.257790   18.348517 O.3        1 MOL1        -0.5486
     105    H50     24.451858   22.104972   18.694236 H          1 MOL1         0.3769
     106    C31     21.209428   14.082183   22.365473 C.3        1 MOL1         0.2972
     107    H51     20.725787   13.144946   22.669510 H          1 MOL1         0.0751
     108    O26     20.250373   15.023347   21.847045 O.3        1 MOL1        -0.3740
     109    C32     21.934642   14.718677   23.576046 C.3        1 MOL1         0.1003
     110    H52     22.720074   14.019508   23.890987 H          1 MOL1         0.0783
     111    O27     21.031876   14.933933   24.670076 O.3        1 MOL1        -0.5519
     112    H53     20.321039   15.540997   24.341740 H          1 MOL1         0.3769
     113    C33     22.608401   16.047590   23.173616 C.3        1 MOL1         0.1053
     114    H54     21.815386   16.765447   22.927430 H          1 MOL1         0.0783
     115    O28     23.377911   16.535532   24.277195 O.3        1 MOL1        -0.5519
     116    H55     22.782806   16.449367   25.055267 H          1 MOL1         0.3769
     117    C34     23.512174   15.881187   21.927275 C.3        1 MOL1         0.1018
     118    H56     24.467194   15.436722   22.237608 H          1 MOL1         0.0783
     119    C35     22.854373   15.026802   20.805924 C.3        1 MOL1         0.1043
     120    H57     22.101025   15.660905   20.328442 H          1 MOL1         0.0783
     121    O29     22.198487   13.845323   21.339439 O.3        1 MOL1        -0.3740
     122    C36     23.844288   14.586051   19.701220 C.3        1 MOL1         0.0138
     123    H58     24.132677   15.470981   19.117905 H          1 MOL1         0.0794
     124    H59     23.326625   13.900523   19.016859 H          1 MOL1         0.0794
     125    O30     25.012804   13.959690   20.244194 O.3        1 MOL1        -0.5486
     126    H60     25.554034   13.634567   19.491775 H          1 MOL1         0.3769
     127    C1      20.607390   19.509741   22.508870 C.3        1 MOL1        -0.1689
     128    H1      21.418176   19.192960   21.843056 H          1 MOL1         0.0830
     129    H2      20.271610   20.503114   22.188573 H          1 MOL1         0.0830
     130    C2      21.062762   19.568635   23.974131 C.3        1 MOL1        -0.1689
     131    H3      21.781265   18.764622   24.173304 H          1 MOL1         0.0830
     132    H4      21.542286   20.522304   24.229361 H          1 MOL1         0.0830
     133    C3      19.782777   19.322045   24.787220 C.3        1 MOL1        -0.1765
     134    H5      19.258846   20.273289   24.936985 H          1 MOL1         0.0830
     135    H6      20.003298   18.902466   25.777158 H          1 MOL1         0.0830
     136    C4      18.906210   18.390948   23.930351 C.3        1 MOL1         0.1214
     137    H7      17.854189   18.701722   23.994019 H          1 MOL1         0.0787
     138    C5      19.420560   18.525035   22.481855 C.3        1 MOL1        -0.1765
     139    H8      19.752775   17.551811   22.106221 H          1 MOL1         0.0830
     140    H9      18.626242   18.881744   21.814116 H          1 MOL1         0.0830
     141    O1      19.055624   17.049697   24.381274 O.3        1 MOL1        -0.5512
     142    H10     18.693200   17.025241   25.289448 H          1 MOL1         0.3776
@<TRIPOS>BOND
    1     1     2    1
    2     1     3    1
    3     1     4    1
    4     4     5    1
    5     4     6    1
    6     6     7    1
    7     4     8    1
    8     8     9    1
    9     8    10    1
   10    10    11    1
   11     8    12    1
   12    12    13    1
   13    12    14    1
   14    14    15    1
   15     1    16    1
   16    14    16    1
   17    14    17    1
   18    17    18    1
   19    17    19    1
   20    17    20    1
   21    20    21    1
   22    22    23    1
   23    22    24    1
   24    22    25    1
   25    25    26    1
   26    25    27    1
   27    27    28    1
   28    25    29    1
   29    29    30    1
   30    29    31    1
   31    31    32    1
   32     3    33    1
   33    29    33    1
   34    33    34    1
   35    33    35    1
   36    35    36    1
   37    22    37    1
   38    35    37    1
   39    35    38    1
   40    38    39    1
   41    38    40    1
   42    38    41    1
   43    41    42    1
   44    43    44    1
   45    43    45    1
   46    43    46    1
   47    46    47    1
   48    46    48    1
   49    48    49    1
   50    46    50    1
   51    50    51    1
   52    50    52    1
   53    52    53    1
   54    24    54    1
   55    50    54    1
   56    54    55    1
   57    54    56    1
   58    56    57    1
   59    43    58    1
   60    56    58    1
   61    56    59    1
   62    59    60    1
   63    59    61    1
   64    59    62    1
   65    62    63    1
   66    64    65    1
   67    64    66    1
   68    64    67    1
   69    67    68    1
   70    67    69    1
   71    69    70    1
   72    67    71    1
   73    71    72    1
   74    71    73    1
   75    73    74    1
   76    45    75    1
   77    71    75    1
   78    75    76    1
   79    75    77    1
   80    77    78    1
   81    64    79    1
   82    77    79    1
   83    77    80    1
   84    80    81    1
   85    80    82    1
   86    80    83    1
   87    83    84    1
   88    85    86    1
   89    85    87    1
   90    85    88    1
   91    88    89    1
   92    88    90    1
   93    90    91    1
   94    88    92    1
   95    92    93    1
   96    92    94    1
   97    94    95    1
   98    66    96    1
   99    92    96    1
  100    96    97    1
  101    96    98    1
  102    98    99    1
  103    85   100    1
  104    98   100    1
  105    98   101    1
  106   101   102    1
  107   101   103    1
  108   101   104    1
  109   104   105    1
  110   106   107    1
  111    12   108    1
  112   106   108    1
  113   106   109    1
  114   109   110    1
  115   109   111    1
  116   111   112    1
  117   109   113    1
  118   113   114    1
  119   113   115    1
  120   115   116    1
  121    87   117    1
  122   113   117    1
  123   117   118    1
  124   117   119    1
  125   119   120    1
  126   106   121    1
  127   119   121    1
  128   119   122    1
  129   122   123    1
  130   122   124    1
  131   122   125    1
  132   125   126    1
  133   127   128    1
  134   127   129    1
  135   127   130    1
  136   130   131    1
  137   130   132    1
  138   130   133    1
  139   133   134    1
  140   133   135    1
  141   133   136    1
  142   136   137    1
  143   127   138    1
  144   136   138    1
  145   138   139    1
  146   138   140    1
  147   136   141    1
  148   141   142    1
@<TRIPOS>SUBSTRUCTURE
       1 MOL1            1 RESIDUE      1      MOL     
       2 MOL1          142 RESIDUE      1      MOL     
@<SCITEGIC>MOL_PROPERTY
feprocess Rank
SciTegic.value.IntegerValue
2

@<SCITEGIC>MOL_PROPERTY
Conf_Id
SciTegic.value.IntegerValue
718

@<SCITEGIC>MOL_PROPERTY
Probability
SciTegic.value.DoubleValue
4.99

@<SCITEGIC>MOL_PROPERTY
G
SciTegic.value.DoubleValue
556.663

@<SCITEGIC>MOL_PROPERTY
E
SciTegic.value.DoubleValue
372.340

@<SCITEGIC>MOL_PROPERTY
-TS
SciTegic.value.DoubleValue
184.323

@<SCITEGIC>MOL_PROPERTY
U+W
SciTegic.value.DoubleValue
247.146

@<SCITEGIC>MOL_PROPERTY
U
SciTegic.value.DoubleValue
286.043

@<SCITEGIC>MOL_PROPERTY
W
SciTegic.value.DoubleValue
-38.897

@<SCITEGIC>MOL_PROPERTY
W(PB)
SciTegic.value.DoubleValue
-44.951

@<SCITEGIC>MOL_PROPERTY
W(SA)
SciTegic.value.DoubleValue
6.054

@<SCITEGIC>MOL_PROPERTY
Valence
SciTegic.value.DoubleValue
157.536

@<SCITEGIC>MOL_PROPERTY
Coulomb
SciTegic.value.DoubleValue
151.702

@<SCITEGIC>MOL_PROPERTY
VdW
SciTegic.value.DoubleValue
-23.195

@<SCITEGIC>MOL_PROPERTY
VdW6
SciTegic.value.DoubleValue
-172.081

@<SCITEGIC>MOL_PROPERTY
VdW12
SciTegic.value.DoubleValue
148.886

@<SCITEGIC>MOL_PROPERTY
Bond
SciTegic.value.DoubleValue
4.540

@<SCITEGIC>MOL_PROPERTY
Angle
SciTegic.value.DoubleValue
14.730

@<SCITEGIC>MOL_PROPERTY
Pdih
SciTegic.value.DoubleValue
138.266

@<SCITEGIC>MOL_PROPERTY
Idih
SciTegic.value.DoubleValue
0.000

@<SCITEGIC>MOL_PROPERTY
Tether
SciTegic.value.DoubleValue
0.000

@<TRIPOS>MOLECULE
CD_guest-4_fast_vm2_rndm.mol2 : feprocess host+ligand conformer 3
         142         148           2
SMALL
USER_CHARGES
 
@<TRIPOS>ATOM
       1    C1      16.335038   15.383330   21.967481 C.3        1 MOL1         0.2972
       2    H1      15.281223   15.300084   22.261489 H          1 MOL1         0.0751
       3    O1      16.607180   16.643315   21.322129 O.3        1 MOL1        -0.3740
       4    C2      17.251197   15.241949   23.209863 C.3        1 MOL1         0.1003
       5    H2      17.035241   14.262955   23.657309 H          1 MOL1         0.0783
       6    O2      17.000952   16.273014   24.180319 O.3        1 MOL1        -0.5519
       7    H3      16.071310   16.577695   24.041337 H          1 MOL1         0.3769
       8    C3      18.742108   15.272686   22.811906 C.3        1 MOL1         0.1053
       9    H4      18.977050   16.292375   22.483467 H          1 MOL1         0.0783
      10    O3      19.516424   14.939146   23.966569 O.3        1 MOL1        -0.5519
      11    H5      19.108690   15.461365   24.693443 H          1 MOL1         0.3769
      12    C4      19.070962   14.308431   21.644479 C.3        1 MOL1         0.1018
      13    H6      19.141156   13.286500   22.040196 H          1 MOL1         0.0783
      14    C5      18.016852   14.366277   20.503046 C.3        1 MOL1         0.1043
      15    H7      18.154474   15.311421   19.961645 H          1 MOL1         0.0783
      16    O4      16.673915   14.325519   21.046640 O.3        1 MOL1        -0.3740
      17    C6      18.165300   13.222822   19.470735 C.3        1 MOL1         0.0138
      18    H8      19.076818   13.400531   18.884048 H          1 MOL1         0.0794
      19    H9      17.316255   13.266223   18.775475 H          1 MOL1         0.0794
      20    O5      18.233768   11.934259   20.094637 O.3        1 MOL1        -0.5486
      21    H10     18.248710   11.258611   19.381840 H          1 MOL1         0.3769
      22    C7      14.724290   20.325858   20.858976 C.3        1 MOL1         0.2972
      23    H11     14.027166   21.141092   20.627331 H          1 MOL1         0.0751
      24    O6      16.004174   20.825421   21.290104 O.3        1 MOL1        -0.3740
      25    C8      14.155640   19.463880   22.009740 C.3        1 MOL1         0.1003
      26    H12     13.194841   19.052523   21.673923 H          1 MOL1         0.0783
      27    O7      13.946182   20.272618   23.178138 O.3        1 MOL1        -0.5519
      28    H13     14.710128   20.897515   23.228971 H          1 MOL1         0.3769
      29    C9      15.098645   18.281448   22.334643 C.3        1 MOL1         0.1053
      30    H14     16.023846   18.694986   22.752940 H          1 MOL1         0.0783
      31    O8      14.457306   17.443088   23.302809 O.3        1 MOL1        -0.5519
      32    H15     14.070914   18.069814   23.956364 H          1 MOL1         0.3769
      33    C10     15.465854   17.483057   21.052511 C.3        1 MOL1         0.1018
      34    H16     14.598322   16.888559   20.738968 H          1 MOL1         0.0783
      35    C11     15.894079   18.415484   19.886153 C.3        1 MOL1         0.1043
      36    H17     16.865810   18.856214   20.145466 H          1 MOL1         0.0783
      37    O9      14.922419   19.476940   19.708984 O.3        1 MOL1        -0.3740
      38    C12     16.078787   17.676794   18.536829 C.3        1 MOL1         0.0138
      39    H18     17.007174   17.091961   18.583852 H          1 MOL1         0.0794
      40    H19     16.207296   18.424057   17.742853 H          1 MOL1         0.0794
      41    O10     14.980496   16.812344   18.222518 O.3        1 MOL1        -0.5486
      42    H20     15.037448   16.035787   18.819948 H          1 MOL1         0.3769
      43    C13     18.565326   24.074089   20.890945 C.3        1 MOL1         0.2972
      44    H21     19.029559   25.041069   20.658032 H          1 MOL1         0.0751
      45    O11     19.533966   23.118935   21.365650 O.3        1 MOL1        -0.3740
      46    C14     17.458167   24.228961   21.966559 C.3        1 MOL1         0.1003
      47    H22     16.698688   24.907305   21.556570 H          1 MOL1         0.0783
      48    O12     17.979229   24.789310   23.182218 O.3        1 MOL1        -0.5519
      49    H23     18.723685   24.207616   23.481038 H          1 MOL1         0.3769
      50    C15     16.778876   22.866412   22.247843 C.3        1 MOL1         0.1053
      51    H24     17.515459   22.209935   22.729111 H          1 MOL1         0.0783
      52    O13     15.660227   23.059104   23.120433 O.3        1 MOL1        -0.5519
      53    H25     15.991370   23.639762   23.840712 H          1 MOL1         0.3769
      54    C16     16.310612   22.186082   20.937241 C.3        1 MOL1         0.1018
      55    H26     15.429679   22.727374   20.568250 H          1 MOL1         0.0783
      56    C17     17.418384   22.181056   19.844806 C.3        1 MOL1         0.1043
      57    H27     18.219370   21.505681   20.169555 H          1 MOL1         0.0783
      58    O14     17.950887   23.521315   19.706670 O.3        1 MOL1        -0.3740
      59    C18     16.968109   21.690119   18.445157 C.3        1 MOL1         0.0138
      60    H28     17.080315   20.599680   18.406628 H          1 MOL1         0.0794
      61    H29     17.653099   22.104997   17.693728 H          1 MOL1         0.0794
      62    O15     15.618032   22.043497   18.126021 O.3        1 MOL1        -0.5486
      63    H30     15.050714   21.316068   18.468528 H          1 MOL1         0.3769
      64    C19     23.485633   22.616025   22.348467 C.3        1 MOL1         0.2972
      65    H31     24.541471   22.688406   22.640571 H          1 MOL1         0.0751
      66    O16     23.146880   21.293254   21.894858 O.3        1 MOL1        -0.3740
      67    C20     22.576165   22.952963   23.552684 C.3        1 MOL1         0.1003
      68    H32     22.772251   23.995003   23.837028 H          1 MOL1         0.0783
      69    O17     22.870421   22.091923   24.664430 O.3        1 MOL1        -0.5519
      70    H33     23.451106   21.370597   24.320769 H          1 MOL1         0.3769
      71    C21     21.088222   22.832067   23.152546 C.3        1 MOL1         0.1053
      72    H34     20.879022   21.775248   22.943096 H          1 MOL1         0.0783
      73    O18     20.267654   23.277959   24.236712 O.3        1 MOL1        -0.5519
      74    H35     20.666050   22.866520   25.035971 H          1 MOL1         0.3769
      75    C22     20.772125   23.648590   21.874418 C.3        1 MOL1         0.1018
      76    H36     20.688036   24.708842   22.148091 H          1 MOL1         0.0783
      77    C23     21.833024   23.462891   20.750115 C.3        1 MOL1         0.1043
      78    H37     21.677937   22.467946   20.316079 H          1 MOL1         0.0783
      79    O19     23.181161   23.538753   21.282536 O.3        1 MOL1        -0.3740
      80    C24     21.705368   24.485803   19.596033 C.3        1 MOL1         0.0138
      81    H38     20.800722   24.250764   19.019109 H          1 MOL1         0.0794
      82    H39     22.562590   24.361648   18.920607 H          1 MOL1         0.0794
      83    O20     21.639797   25.834397   20.075641 O.3        1 MOL1        -0.5486
      84    H40     21.647031   26.429471   19.294262 H          1 MOL1         0.3769
      85    C25     24.984345   17.693827   20.900002 C.3        1 MOL1         0.2972
      86    H41     25.680771   16.927208   20.536760 H          1 MOL1         0.0751
      87    O21     23.707512   17.132548   21.265833 O.3        1 MOL1        -0.3740
      88    C26     25.551136   18.393876   22.162570 C.3        1 MOL1         0.1003
      89    H42     26.507083   18.856528   21.884862 H          1 MOL1         0.0783
      90    O22     25.772446   17.444056   23.217975 O.3        1 MOL1        -0.5519
      91    H43     25.001147   16.822131   23.222514 H          1 MOL1         0.3769
      92    C27     24.594432   19.515370   22.638080 C.3        1 MOL1         0.1053
      93    H44     23.664023   19.045526   22.978617 H          1 MOL1         0.0783
      94    O23     25.191639   20.238699   23.718945 O.3        1 MOL1        -0.5519
      95    H45     25.579111   19.549027   24.303393 H          1 MOL1         0.3769
      96    C28     24.247453   20.474182   21.472751 C.3        1 MOL1         0.1018
      97    H46     25.134262   21.072833   21.225906 H          1 MOL1         0.0783
      98    C29     23.781903   19.706296   20.207071 C.3        1 MOL1         0.1043
      99    H47     22.825424   19.215588   20.428544 H          1 MOL1         0.0783
     100    O24     24.770069   18.700115   19.884221 O.3        1 MOL1        -0.3740
     101    C30     23.548489   20.603559   18.963033 C.3        1 MOL1         0.0138
     102    H48     22.499757   20.926172   18.962526 H          1 MOL1         0.0794
     103    H49     23.691942   19.995691   18.059777 H          1 MOL1         0.0794
     104    O25     24.402922   21.754249   18.923433 O.3        1 MOL1        -0.5486
     105    H50     24.136088   22.343844   19.665886 H          1 MOL1         0.3769
     106    C31     21.345763   13.765558   20.871427 C.3        1 MOL1         0.2972
     107    H51     20.914600   12.773220   20.686464 H          1 MOL1         0.0751
     108    O26     20.318324   14.758920   21.075968 O.3        1 MOL1        -0.3740
     109    C32     22.310637   13.744107   22.087536 C.3        1 MOL1         0.1003
     110    H52     23.150237   13.089458   21.819469 H          1 MOL1         0.0783
     111    O27     21.685659   13.222461   23.268735 O.3        1 MOL1        -0.5519
     112    H53     20.936534   13.829673   23.493595 H          1 MOL1         0.3769
     113    C33     22.879276   15.161638   22.337794 C.3        1 MOL1         0.1053
     114    H54     22.049195   15.824801   22.617779 H          1 MOL1         0.0783
     115    O28     23.842300   15.117735   23.396403 O.3        1 MOL1        -0.5519
     116    H55     23.429945   14.563514   24.095780 H          1 MOL1         0.3769
     117    C34     23.542443   15.718629   21.053796 C.3        1 MOL1         0.1018
     118    H56     24.505025   15.207539   20.920872 H          1 MOL1         0.0783
     119    C35     22.662765   15.528967   19.784037 C.3        1 MOL1         0.1043
     120    H57     21.829607   16.242402   19.835773 H          1 MOL1         0.0783
     121    O29     22.129811   14.180213   19.733047 O.3        1 MOL1        -0.3740
     122    C36     23.420710   15.799057   18.461815 C.3        1 MOL1         0.0138
     123    H58     23.603309   16.878306   18.377421 H          1 MOL1         0.0794
     124    H59     22.772816   15.513212   17.622439 H          1 MOL1         0.0794
     125    O30     24.664130   15.088751   18.395337 O.3        1 MOL1        -0.5486
     126    H60     25.063939   15.271182   17.517074 H          1 MOL1         0.3769
     127    C1      20.538120   18.743019   22.535620 C.3        1 MOL1        -0.1689
     128    H1      20.618659   17.895415   21.841853 H          1 MOL1         0.0830
     129    H2      21.241425   19.516593   22.206760 H          1 MOL1         0.0830
     130    C2      20.859961   18.345563   23.983326 C.3        1 MOL1        -0.1689
     131    H3      20.458647   17.348817   24.193757 H          1 MOL1         0.0830
     132    H4      21.937136   18.323861   24.189375 H          1 MOL1         0.0830
     133    C3      20.122158   19.384266   24.842179 C.3        1 MOL1        -0.1765
     134    H5      20.762897   20.263410   24.983183 H          1 MOL1         0.0830
     135    H6      19.872598   18.991861   25.836719 H          1 MOL1         0.0830
     136    C4      18.873291   19.794787   24.041050 C.3        1 MOL1         0.1214
     137    H7      18.753454   20.885999   24.083225 H          1 MOL1         0.0787
     138    C5      19.114894   19.334487   22.587090 C.3        1 MOL1        -0.1765
     139    H8      18.380551   18.573747   22.295274 H          1 MOL1         0.0830
     140    H9      19.015142   20.175076   21.890622 H          1 MOL1         0.0830
     141    O1      17.723875   19.154156   24.577298 O.3        1 MOL1        -0.5512
     142    H10     17.850408   18.186167   24.459179 H          1 MOL1         0.3776
@<TRIPOS>BOND
    1     1     2    1
    2     1     3    1
    3     1     4    1
    4     4     5    1
    5     4     6    1
    6     6     7    1
    7     4     8    1
    8     8     9    1
    9     8    10    1
   10    10    11    1
   11     8    12    1
   12    12    13    1
   13    12    14    1
   14    14    15    1
   15     1    16    1
   16    14    16    1
   17    14    17    1
   18    17    18    1
   19    17    19    1
   20    17    20    1
   21    20    21    1
   22    22    23    1
   23    22    24    1
   24    22    25    1
   25    25    26    1
   26    25    27    1
   27    27    28    1
   28    25    29    1
   29    29    30    1
   30    29    31    1
   31    31    32    1
   32     3    33    1
   33    29    33    1
   34    33    34    1
   35    33    35    1
   36    35    36    1
   37    22    37    1
   38    35    37    1
   39    35    38    1
   40    38    39    1
   41    38    40    1
   42    38    41    1
   43    41    42    1
   44    43    44    1
   45    43    45    1
   46    43    46    1
   47    46    47    1
   48    46    48    1
   49    48    49    1
   50    46    50    1
   51    50    51    1
   52    50    52    1
   53    52    53    1
   54    24    54    1
   55    50    54    1
   56    54    55    1
   57    54    56    1
   58    56    57    1
   59    43    58    1
   60    56    58    1
   61    56    59    1
   62    59    60    1
   63    59    61    1
   64    59    62    1
   65    62    63    1
   66    64    65    1
   67    64    66    1
   68    64    67    1
   69    67    68    1
   70    67    69    1
   71    69    70    1
   72    67    71    1
   73    71    72    1
   74    71    73    1
   75    73    74    1
   76    45    75    1
   77    71    75    1
   78    75    76    1
   79    75    77    1
   80    77    78    1
   81    64    79    1
   82    77    79    1
   83    77    80    1
   84    80    81    1
   85    80    82    1
   86    80    83    1
   87    83    84    1
   88    85    86    1
   89    85    87    1
   90    85    88    1
   91    88    89    1
   92    88    90    1
   93    90    91    1
   94    88    92    1
   95    92    93    1
   96    92    94    1
   97    94    95    1
   98    66    96    1
   99    92    96    1
  100    96    97    1
  101    96    98    1
  102    98    99    1
  103    85   100    1
  104    98   100    1
  105    98   101    1
  106   101   102    1
  107   101   103    1
  108   101   104    1
  109   104   105    1
  110   106   107    1
  111    12   108    1
  112   106   108    1
  113   106   109    1
  114   109   110    1
  115   109   111    1
  116   111   112    1
  117   109   113    1
  118   113   114    1
  119   113   115    1
  120   115   116    1
  121    87   117    1
  122   113   117    1
  123   117   118    1
  124   117   119    1
  125   119   120    1
  126   106   121    1
  127   119   121    1
  128   119   122    1
  129   122   123    1
  130   122   124    1
  131   122   125    1
  132   125   126    1
  133   127   128    1
  134   127   129    1
  135   127   130    1
  136   130   131    1
  137   130   132    1
  138   130   133    1
  139   133   134    1
  140   133   135    1
  141   133   136    1
  142   136   137    1
  143   127   138    1
  144   136   138    1
  145   138   139    1
  146   138   140    1
  147   136   141    1
  148   141   142    1
@<TRIPOS>SUBSTRUCTURE
       1 MOL1            1 RESIDUE      1      MOL     
       2 MOL1          142 RESIDUE      1      MOL     
@<SCITEGIC>MOL_PROPERTY
feprocess Rank
SciTegic.value.IntegerValue
3

@<SCITEGIC>MOL_PROPERTY
Conf_Id
SciTegic.value.IntegerValue
804

@<SCITEGIC>MOL_PROPERTY
Probability
SciTegic.value.DoubleValue
4.71

@<SCITEGIC>MOL_PROPERTY
G
SciTegic.value.DoubleValue
556.697

@<SCITEGIC>MOL_PROPERTY
E
SciTegic.value.DoubleValue
372.918

@<SCITEGIC>MOL_PROPERTY
-TS
SciTegic.value.DoubleValue
183.779

@<SCITEGIC>MOL_PROPERTY
U+W
SciTegic.value.DoubleValue
247.724

@<SCITEGIC>MOL_PROPERTY
U
SciTegic.value.DoubleValue
285.252

@<SCITEGIC>MOL_PROPERTY
W
SciTegic.value.DoubleValue
-37.528

@<SCITEGIC>MOL_PROPERTY
W(PB)
SciTegic.value.DoubleValue
-43.538

@<SCITEGIC>MOL_PROPERTY
W(SA)
SciTegic.value.DoubleValue
6.010

@<SCITEGIC>MOL_PROPERTY
Valence
SciTegic.value.DoubleValue
158.778

@<SCITEGIC>MOL_PROPERTY
Coulomb
SciTegic.value.DoubleValue
149.531

@<SCITEGIC>MOL_PROPERTY
VdW
SciTegic.value.DoubleValue
-23.056

@<SCITEGIC>MOL_PROPERTY
VdW6
SciTegic.value.DoubleValue
-171.280

@<SCITEGIC>MOL_PROPERTY
VdW12
SciTegic.value.DoubleValue
148.224

@<SCITEGIC>MOL_PROPERTY
Bond
SciTegic.value.DoubleValue
4.462

@<SCITEGIC>MOL_PROPERTY
Angle
SciTegic.value.DoubleValue
14.612

@<SCITEGIC>MOL_PROPERTY
Pdih
SciTegic.value.DoubleValue
139.704

@<SCITEGIC>MOL_PROPERTY
Idih
SciTegic.value.DoubleValue
0.000

@<SCITEGIC>MOL_PROPERTY
Tether
SciTegic.value.DoubleValue
0.000

@<TRIPOS>MOLECULE
CD_guest-4_fast_vm2_rndm.mol2 : feprocess host+ligand conformer 4
         142         148           2
SMALL
USER_CHARGES
 
@<TRIPOS>ATOM
       1    C1      16.301319   15.433854   21.809844 C.3        1 MOL1         0.2972
       2    H1      15.217559   15.327243   21.944968 H          1 MOL1         0.0751
       3    O1      16.635280   16.654076   21.122662 O.3        1 MOL1        -0.3740
       4    C2      17.025241   15.427212   23.181365 C.3        1 MOL1         0.1003
       5    H2      16.811613   14.459751   23.654316 H          1 MOL1         0.0783
       6    O2      16.557639   16.482336   24.037891 O.3        1 MOL1        -0.5519
       7    H3      15.690947   16.787451   23.675593 H          1 MOL1         0.3769
       8    C3      18.555176   15.543179   22.988985 C.3        1 MOL1         0.1053
       9    H4      18.774058   16.531558   22.562213 H          1 MOL1         0.0783
      10    O3      19.190124   15.415763   24.264035 O.3        1 MOL1        -0.5519
      11    H5      18.658911   15.992075   24.859381 H          1 MOL1         0.3769
      12    C4      19.077421   14.462227   22.010004 C.3        1 MOL1         0.1018
      13    H6      19.058499   13.490487   22.520882 H          1 MOL1         0.0783
      14    C5      18.230957   14.393913   20.708371 C.3        1 MOL1         0.1043
      15    H7      18.428429   15.302386   20.124013 H          1 MOL1         0.0783
      16    O4      16.817930   14.331585   21.033278 O.3        1 MOL1        -0.3740
      17    C6      18.586572   13.186731   19.808741 C.3        1 MOL1         0.0138
      18    H8      19.580445   13.361289   19.373987 H          1 MOL1         0.0794
      19    H9      17.870093   13.146072   18.977557 H          1 MOL1         0.0794
      20    O5      18.582490   11.950317   20.534941 O.3        1 MOL1        -0.5486
      21    H10     18.764870   11.229106   19.893907 H          1 MOL1         0.3769
      22    C7      14.916929   20.292592   20.163692 C.3        1 MOL1         0.2972
      23    H11     14.318350   21.121315   19.763914 H          1 MOL1         0.0751
      24    O6      16.145115   20.756841   20.760508 O.3        1 MOL1        -0.3740
      25    C8      14.126894   19.495207   21.231734 C.3        1 MOL1         0.1003
      26    H12     13.249243   19.064788   20.731962 H          1 MOL1         0.0783
      27    O7      13.683497   20.342018   22.303276 O.3        1 MOL1        -0.5519
      28    H13     14.478277   20.822014   22.649897 H          1 MOL1         0.3769
      29    C9      14.983144   18.326853   21.780348 C.3        1 MOL1         0.1053
      30    H14     15.835095   18.754699   22.327359 H          1 MOL1         0.0783
      31    O8      14.176998   17.547255   22.671059 O.3        1 MOL1        -0.5519
      32    H15     13.644337   18.207351   23.171335 H          1 MOL1         0.3769
      33    C10     15.541638   17.447716   20.625052 C.3        1 MOL1         0.1018
      34    H16     14.736967   16.816946   20.226644 H          1 MOL1         0.0783
      35    C11     16.147486   18.296081   19.474363 C.3        1 MOL1         0.1043
      36    H17     17.086464   18.727563   19.839062 H          1 MOL1         0.0783
      37    O9      15.249451   19.369975   19.106042 O.3        1 MOL1        -0.3740
      38    C12     16.490115   17.472866   18.208587 C.3        1 MOL1         0.0138
      39    H18     17.356129   16.835837   18.430970 H          1 MOL1         0.0794
      40    H19     16.795291   18.166418   17.414269 H          1 MOL1         0.0794
      41    O10     15.395427   16.662506   17.762629 O.3        1 MOL1        -0.5486
      42    H20     15.335969   15.891752   18.366538 H          1 MOL1         0.3769
      43    C13     18.349160   24.121833   21.623504 C.3        1 MOL1         0.2972
      44    H21     18.752451   25.126859   21.796874 H          1 MOL1         0.0751
      45    O11     19.395666   23.127795   21.552551 O.3        1 MOL1        -0.3740
      46    C14     17.339323   23.728459   22.730780 C.3        1 MOL1         0.1003
      47    H22     16.488606   24.418104   22.652206 H          1 MOL1         0.0783
      48    O12     17.908151   23.850491   24.041966 O.3        1 MOL1        -0.5519
      49    H23     18.714509   23.275942   24.067916 H          1 MOL1         0.3769
      50    C15     16.810089   22.296017   22.481006 C.3        1 MOL1         0.1053
      51    H24     17.648737   21.593019   22.581123 H          1 MOL1         0.0783
      52    O13     15.802720   21.988891   23.449869 O.3        1 MOL1        -0.5519
      53    H25     16.171172   22.297971   24.307759 H          1 MOL1         0.3769
      54    C16     16.226698   22.164802   21.049988 C.3        1 MOL1         0.1018
      55    H26     15.239343   22.645352   21.035960 H          1 MOL1         0.0783
      56    C17     17.140492   22.794758   19.958958 C.3        1 MOL1         0.1043
      57    H27     18.001750   22.132233   19.818065 H          1 MOL1         0.0783
      58    O14     17.623208   24.095523   20.377851 O.3        1 MOL1        -0.3740
      59    C18     16.449059   22.943475   18.582716 C.3        1 MOL1         0.0138
      60    H28     16.317670   21.942761   18.149082 H          1 MOL1         0.0794
      61    H29     17.116670   23.503256   17.914126 H          1 MOL1         0.0794
      62    O15     15.178991   23.599817   18.684021 O.3        1 MOL1        -0.5486
      63    H30     14.834740   23.724794   17.772728 H          1 MOL1         0.3769
      64    C19     23.446391   22.451112   22.152451 C.3        1 MOL1         0.2972
      65    H31     24.510990   22.523423   22.406964 H          1 MOL1         0.0751
      66    O16     23.168716   21.299910   21.331425 O.3        1 MOL1        -0.3740
      67    C20     22.580098   22.363198   23.435163 C.3        1 MOL1         0.1003
      68    H32     22.754616   23.284402   24.006365 H          1 MOL1         0.0783
      69    O17     22.939439   21.232541   24.246054 O.3        1 MOL1        -0.5519
      70    H33     23.864348   20.985763   24.004349 H          1 MOL1         0.3769
      71    C21     21.078154   22.296258   23.071589 C.3        1 MOL1         0.1053
      72    H34     20.895738   21.349611   22.545736 H          1 MOL1         0.0783
      73    O18     20.315429   22.328510   24.279693 O.3        1 MOL1        -0.5519
      74    H35     20.775323   21.692890   24.874389 H          1 MOL1         0.3769
      75    C22     20.671551   23.463877   22.134488 C.3        1 MOL1         0.1018
      76    H36     20.625230   24.386688   22.726925 H          1 MOL1         0.0783
      77    C23     21.665041   23.636966   20.950222 C.3        1 MOL1         0.1043
      78    H37     21.521581   22.792588   20.262899 H          1 MOL1         0.0783
      79    O19     23.033021   23.628973   21.429065 O.3        1 MOL1        -0.3740
      80    C24     21.442165   24.933606   20.133847 C.3        1 MOL1         0.0138
      81    H38     20.466452   24.873530   19.632522 H          1 MOL1         0.0794
      82    H39     22.206223   24.980569   19.346615 H          1 MOL1         0.0794
      83    O20     21.507096   26.114158   20.945230 O.3        1 MOL1        -0.5486
      84    H40     20.707941   26.144659   21.509534 H          1 MOL1         0.3769
      85    C25     24.950099   17.658774   20.441480 C.3        1 MOL1         0.2972
      86    H41     25.574927   16.837340   20.067583 H          1 MOL1         0.0751
      87    O21     23.684037   17.184231   20.945443 O.3        1 MOL1        -0.3740
      88    C26     25.666128   18.442206   21.570399 C.3        1 MOL1         0.1003
      89    H42     26.563893   18.895559   21.130060 H          1 MOL1         0.0783
      90    O22     26.065515   17.581501   22.647443 O.3        1 MOL1        -0.5519
      91    H43     25.260040   17.088506   22.947588 H          1 MOL1         0.3769
      92    C27     24.761845   19.588256   22.089092 C.3        1 MOL1         0.1053
      93    H44     23.873080   19.141066   22.556026 H          1 MOL1         0.0783
      94    O23     25.495829   20.339094   23.063042 O.3        1 MOL1        -0.5519
      95    H45     26.006104   19.664465   23.567609 H          1 MOL1         0.3769
      96    C28     24.291493   20.496610   20.915124 C.3        1 MOL1         0.1018
      97    H46     25.129841   21.125221   20.589420 H          1 MOL1         0.0783
      98    C29     23.767501   19.669094   19.708716 C.3        1 MOL1         0.1043
      99    H47     22.808063   19.227681   20.000920 H          1 MOL1         0.0783
     100    O24     24.688779   18.601871   19.380986 O.3        1 MOL1        -0.3740
     101    C30     23.506230   20.513161   18.436914 C.3        1 MOL1         0.0138
     102    H48     22.593948   21.104869   18.591507 H          1 MOL1         0.0794
     103    H49     23.311176   19.829328   17.600595 H          1 MOL1         0.0794
     104    O25     24.597932   21.382381   18.113200 O.3        1 MOL1        -0.5486
     105    H50     24.596246   22.114329   18.766667 H          1 MOL1         0.3769
     106    C31     21.432281   13.828681   21.715843 C.3        1 MOL1         0.2972
     107    H51     21.006109   12.828909   21.869150 H          1 MOL1         0.0751
     108    O26     20.410726   14.844480   21.623978 O.3        1 MOL1        -0.3740
     109    C32     22.394689   14.212296   22.866822 C.3        1 MOL1         0.1003
     110    H52     23.240088   13.512671   22.832718 H          1 MOL1         0.0783
     111    O27     21.758051   14.108200   24.148990 O.3        1 MOL1        -0.5519
     112    H53     20.912826   14.623302   24.101528 H          1 MOL1         0.3769
     113    C33     22.948954   15.640119   22.640102 C.3        1 MOL1         0.1053
     114    H54     22.114213   16.351230   22.710561 H          1 MOL1         0.0783
     115    O28     23.915726   15.931854   23.653235 O.3        1 MOL1        -0.5519
     116    H55     23.505150   15.621846   24.491709 H          1 MOL1         0.3769
     117    C34     23.588285   15.775535   21.232355 C.3        1 MOL1         0.1018
     118    H56     24.573515   15.291001   21.252033 H          1 MOL1         0.0783
     119    C35     22.712605   15.153245   20.106628 C.3        1 MOL1         0.1043
     120    H57     21.857652   15.817170   19.939227 H          1 MOL1         0.0783
     121    O29     22.212805   13.852830   20.502797 O.3        1 MOL1        -0.3740
     122    C36     23.450151   15.011815   18.754263 C.3        1 MOL1         0.0138
     123    H58     23.595266   16.015109   18.331342 H          1 MOL1         0.0794
     124    H59     22.804567   14.456038   18.061100 H          1 MOL1         0.0794
     125    O30     24.716835   14.355694   18.894303 O.3        1 MOL1        -0.5486
     126    H60     25.090630   14.234903   17.994223 H          1 MOL1         0.3769
     127    C1      19.844918   19.744364   20.119116 C.3        1 MOL1        -0.1689
     128    H1      19.080939   20.056687   20.844314 H          1 MOL1         0.0830
     129    H2      20.784342   20.242736   20.387442 H          1 MOL1         0.0830
     130    C2      19.461743   20.109886   18.675564 C.3        1 MOL1        -0.1689
     131    H3      18.369647   20.105626   18.567588 H          1 MOL1         0.0830
     132    H4      19.819556   21.111507   18.401814 H          1 MOL1         0.0830
     133    C3      20.068571   19.014252   17.775345 C.3        1 MOL1        -0.1765
     134    H5      20.928120   19.409830   17.220762 H          1 MOL1         0.0830
     135    H6      19.329323   18.675090   17.037847 H          1 MOL1         0.0830
     136    C4      20.527014   17.863025   18.692750 C.3        1 MOL1         0.1214
     137    H7      21.624831   17.816302   18.684544 H          1 MOL1         0.0787
     138    C5      20.046294   18.218611   20.110163 C.3        1 MOL1        -0.1765
     139    H8      19.094190   17.715936   20.318416 H          1 MOL1         0.0830
     140    H9      20.765935   17.898049   20.874367 H          1 MOL1         0.0830
     141    O1      19.966915   16.626723   18.267684 O.3        1 MOL1        -0.5512
     142    H10     20.244225   16.496373   17.339596 H          1 MOL1         0.3776
@<TRIPOS>BOND
    1     1     2    1
    2     1     3    1
    3     1     4    1
    4     4     5    1
    5     4     6    1
    6     6     7    1
    7     4     8    1
    8     8     9    1
    9     8    10    1
   10    10    11    1
   11     8    12    1
   12    12    13    1
   13    12    14    1
   14    14    15    1
   15     1    16    1
   16    14    16    1
   17    14    17    1
   18    17    18    1
   19    17    19    1
   20    17    20    1
   21    20    21    1
   22    22    23    1
   23    22    24    1
   24    22    25    1
   25    25    26    1
   26    25    27    1
   27    27    28    1
   28    25    29    1
   29    29    30    1
   30    29    31    1
   31    31    32    1
   32     3    33    1
   33    29    33    1
   34    33    34    1
   35    33    35    1
   36    35    36    1
   37    22    37    1
   38    35    37    1
   39    35    38    1
   40    38    39    1
   41    38    40    1
   42    38    41    1
   43    41    42    1
   44    43    44    1
   45    43    45    1
   46    43    46    1
   47    46    47    1
   48    46    48    1
   49    48    49    1
   50    46    50    1
   51    50    51    1
   52    50    52    1
   53    52    53    1
   54    24    54    1
   55    50    54    1
   56    54    55    1
   57    54    56    1
   58    56    57    1
   59    43    58    1
   60    56    58    1
   61    56    59    1
   62    59    60    1
   63    59    61    1
   64    59    62    1
   65    62    63    1
   66    64    65    1
   67    64    66    1
   68    64    67    1
   69    67    68    1
   70    67    69    1
   71    69    70    1
   72    67    71    1
   73    71    72    1
   74    71    73    1
   75    73    74    1
   76    45    75    1
   77    71    75    1
   78    75    76    1
   79    75    77    1
   80    77    78    1
   81    64    79    1
   82    77    79    1
   83    77    80    1
   84    80    81    1
   85    80    82    1
   86    80    83    1
   87    83    84    1
   88    85    86    1
   89    85    87    1
   90    85    88    1
   91    88    89    1
   92    88    90    1
   93    90    91    1
   94    88    92    1
   95    92    93    1
   96    92    94    1
   97    94    95    1
   98    66    96    1
   99    92    96    1
  100    96    97    1
  101    96    98    1
  102    98    99    1
  103    85   100    1
  104    98   100    1
  105    98   101    1
  106   101   102    1
  107   101   103    1
  108   101   104    1
  109   104   105    1
  110   106   107    1
  111    12   108    1
  112   106   108    1
  113   106   109    1
  114   109   110    1
  115   109   111    1
  116   111   112    1
  117   109   113    1
  118   113   114    1
  119   113   115    1
  120   115   116    1
  121    87   117    1
  122   113   117    1
  123   117   118    1
  124   117   119    1
  125   119   120    1
  126   106   121    1
  127   119   121    1
  128   119   122    1
  129   122   123    1
  130   122   124    1
  131   122   125    1
  132   125   126    1
  133   127   128    1
  134   127   129    1
  135   127   130    1
  136   130   131    1
  137   130   132    1
  138   130   133    1
  139   133   134    1
  140   133   135    1
  141   133   136    1
  142   136   137    1
  143   127   138    1
  144   136   138    1
  145   138   139    1
  146   138   140    1
  147   136   141    1
  148   141   142    1
@<TRIPOS>SUBSTRUCTURE
       1 MOL1            1 RESIDUE      1      MOL     
       2 MOL1          142 RESIDUE      1      MOL     
@<SCITEGIC>MOL_PROPERTY
feprocess Rank
SciTegic.value.IntegerValue
4

@<SCITEGIC>MOL_PROPERTY
Conf_Id
SciTegic.value.IntegerValue
361

@<SCITEGIC>MOL_PROPERTY
Probability
SciTegic.value.DoubleValue
2.07

@<SCITEGIC>MOL_PROPERTY
G
SciTegic.value.DoubleValue
557.188

@<SCITEGIC>MOL_PROPERTY
E
SciTegic.value.DoubleValue
373.665

@<SCITEGIC>MOL_PROPERTY
-TS
SciTegic.value.DoubleValue
183.523

@<SCITEGIC>MOL_PROPERTY
U+W
SciTegic.value.DoubleValue
248.471

@<SCITEGIC>MOL_PROPERTY
U
SciTegic.value.DoubleValue
288.446

@<SCITEGIC>MOL_PROPERTY
W
SciTegic.value.DoubleValue
-39.975

@<SCITEGIC>MOL_PROPERTY
W(PB)
SciTegic.value.DoubleValue
-46.075

@<SCITEGIC>MOL_PROPERTY
W(SA)
SciTegic.value.DoubleValue
6.100

@<SCITEGIC>MOL_PROPERTY
Valence
SciTegic.value.DoubleValue
157.702

@<SCITEGIC>MOL_PROPERTY
Coulomb
SciTegic.value.DoubleValue
152.079

@<SCITEGIC>MOL_PROPERTY
VdW
SciTegic.value.DoubleValue
-21.335

@<SCITEGIC>MOL_PROPERTY
VdW6
SciTegic.value.DoubleValue
-169.801

@<SCITEGIC>MOL_PROPERTY
VdW12
SciTegic.value.DoubleValue
148.466

@<SCITEGIC>MOL_PROPERTY
Bond
SciTegic.value.DoubleValue
4.512

@<SCITEGIC>MOL_PROPERTY
Angle
SciTegic.value.DoubleValue
14.686

@<SCITEGIC>MOL_PROPERTY
Pdih
SciTegic.value.DoubleValue
138.503

@<SCITEGIC>MOL_PROPERTY
Idih
SciTegic.value.DoubleValue
0.000

@<SCITEGIC>MOL_PROPERTY
Tether
SciTegic.value.DoubleValue
0.000

@<TRIPOS>MOLECULE
CD_guest-4_fast_vm2_rndm.mol2 : feprocess host+ligand conformer 5
         142         148           2
SMALL
USER_CHARGES
 
@<TRIPOS>ATOM
       1    C1      16.222462   15.172704   20.434295 C.3        1 MOL1         0.2972
       2    H1      15.225132   15.015595   20.003830 H          1 MOL1         0.0751
       3    O1      16.386820   16.510486   20.948043 O.3        1 MOL1        -0.3740
       4    C2      16.475319   14.199152   21.612973 C.3        1 MOL1         0.1003
       5    H2      16.426388   13.176633   21.216638 H          1 MOL1         0.0783
       6    O2      15.479213   14.359887   22.635901 O.3        1 MOL1        -0.5519
       7    H3      15.341110   15.332580   22.765118 H          1 MOL1         0.3769
       8    C3      17.891973   14.422600   22.196790 C.3        1 MOL1         0.1053
       9    H4      17.916145   15.419383   22.655864 H          1 MOL1         0.0783
      10    O3      18.171375   13.430873   23.190257 O.3        1 MOL1        -0.5519
      11    H5      17.358693   13.385244   23.741544 H          1 MOL1         0.3769
      12    C4      18.971042   14.375362   21.086487 C.3        1 MOL1         0.1018
      13    H6      19.094472   13.330740   20.772256 H          1 MOL1         0.0783
      14    C5      18.596778   15.244291   19.850421 C.3        1 MOL1         0.1043
      15    H7      18.638076   16.300321   20.136777 H          1 MOL1         0.0783
      16    O4      17.244229   14.931369   19.440407 O.3        1 MOL1        -0.3740
      17    C6      19.539908   15.086760   18.629638 C.3        1 MOL1         0.0138
      18    H8      20.357679   15.811584   18.728191 H          1 MOL1         0.0794
      19    H9      18.984257   15.357112   17.721834 H          1 MOL1         0.0794
      20    O5      20.085635   13.769510   18.497641 O.3        1 MOL1        -0.5486
      21    H10     20.839130   13.710385   19.129515 H          1 MOL1         0.3769
      22    C7      14.741462   20.289880   21.016413 C.3        1 MOL1         0.2972
      23    H11     14.123980   21.193712   20.934472 H          1 MOL1         0.0751
      24    O6      16.117816   20.609870   21.308678 O.3        1 MOL1        -0.3740
      25    C8      14.197854   19.334002   22.110449 C.3        1 MOL1         0.1003
      26    H12     13.199320   19.008828   21.790364 H          1 MOL1         0.0783
      27    O7      14.085261   19.986376   23.383741 O.3        1 MOL1        -0.5519
      28    H13     14.985726   20.324254   23.621686 H          1 MOL1         0.3769
      29    C9      15.096323   18.078102   22.212930 C.3        1 MOL1         0.1053
      30    H14     16.087688   18.393683   22.564282 H          1 MOL1         0.0783
      31    O8      14.527243   17.152530   23.144800 O.3        1 MOL1        -0.5519
      32    H15     14.254729   17.699913   23.914752 H          1 MOL1         0.3769
      33    C10     15.259894   17.396878   20.830790 C.3        1 MOL1         0.1018
      34    H16     14.331562   16.857012   20.602407 H          1 MOL1         0.0783
      35    C11     15.584100   18.404565   19.691053 C.3        1 MOL1         0.1043
      36    H17     16.625194   18.732548   19.811241 H          1 MOL1         0.0783
      37    O9      14.712219   19.560560   19.771631 O.3        1 MOL1        -0.3740
      38    C12     15.454251   17.793369   18.275099 C.3        1 MOL1         0.0138
      39    H18     16.278401   17.083447   18.124602 H          1 MOL1         0.0794
      40    H19     15.576326   18.595364   17.534887 H          1 MOL1         0.0794
      41    O10     14.199079   17.127332   18.085847 O.3        1 MOL1        -0.5486
      42    H20     14.168150   16.809616   17.157102 H          1 MOL1         0.3769
      43    C13     18.713434   23.642874   22.359790 C.3        1 MOL1         0.2972
      44    H21     19.199746   24.566347   22.698466 H          1 MOL1         0.0751
      45    O11     19.664582   22.736044   21.769080 O.3        1 MOL1        -0.3740
      46    C14     18.026987   22.940547   23.557092 C.3        1 MOL1         0.1003
      47    H22     17.255161   23.623548   23.934977 H          1 MOL1         0.0783
      48    O12     18.961961   22.665840   24.610714 O.3        1 MOL1        -0.5519
      49    H23     19.687108   22.110988   24.226270 H          1 MOL1         0.3769
      50    C15     17.330911   21.638787   23.105461 C.3        1 MOL1         0.1053
      51    H24     18.106924   20.935642   22.780626 H          1 MOL1         0.0783
      52    O13     16.610981   21.088687   24.212314 O.3        1 MOL1        -0.5519
      53    H25     17.229110   21.159602   24.973359 H          1 MOL1         0.3769
      54    C16     16.373509   21.893109   21.914988 C.3        1 MOL1         0.1018
      55    H26     15.456272   22.362684   22.294795 H          1 MOL1         0.0783
      56    C17     17.013534   22.780079   20.809696 C.3        1 MOL1         0.1043
      57    H27     17.746030   22.157393   20.286818 H          1 MOL1         0.0783
      58    O14     17.696109   23.930752   21.374596 O.3        1 MOL1        -0.3740
      59    C18     15.997753   23.277917   19.753682 C.3        1 MOL1         0.0138
      60    H28     15.674599   22.419529   19.149116 H          1 MOL1         0.0794
      61    H29     16.505913   23.978862   19.077972 H          1 MOL1         0.0794
      62    O15     14.858399   23.903845   20.356330 O.3        1 MOL1        -0.5486
      63    H30     14.296912   24.260224   19.633545 H          1 MOL1         0.3769
      64    C19     23.483366   22.589969   20.222235 C.3        1 MOL1         0.2972
      65    H31     24.438267   22.701122   19.692623 H          1 MOL1         0.0751
      66    O16     23.364822   21.293197   20.841344 O.3        1 MOL1        -0.3740
      67    C20     23.290264   23.698639   21.288092 C.3        1 MOL1         0.1003
      68    H32     23.237361   24.653167   20.748328 H          1 MOL1         0.0783
      69    O17     24.388727   23.755668   22.209726 O.3        1 MOL1        -0.5519
      70    H33     24.407082   22.891133   22.692790 H          1 MOL1         0.3769
      71    C21     21.947219   23.507195   22.037119 C.3        1 MOL1         0.1053
      72    H34     22.017713   22.592191   22.641270 H          1 MOL1         0.0783
      73    O18     21.733918   24.639377   22.886487 O.3        1 MOL1        -0.5519
      74    H35     22.570773   24.747073   23.389194 H          1 MOL1         0.3769
      75    C22     20.755597   23.346890   21.049998 C.3        1 MOL1         0.1018
      76    H36     20.484458   24.341677   20.674458 H          1 MOL1         0.0783
      77    C23     21.075264   22.412016   19.844593 C.3        1 MOL1         0.1043
      78    H37     21.080855   21.376817   20.208802 H          1 MOL1         0.0783
      79    O19     22.381430   22.727536   19.299977 O.3        1 MOL1        -0.3740
      80    C24     20.039042   22.462563   18.691510 C.3        1 MOL1         0.0138
      81    H38     19.262649   21.713862   18.890103 H          1 MOL1         0.0794
      82    H39     20.535826   22.154567   17.761760 H          1 MOL1         0.0794
      83    O20     19.439191   23.753668   18.520643 O.3        1 MOL1        -0.5486
      84    H40     18.942760   23.961061   19.343781 H          1 MOL1         0.3769
      85    C25     25.065797   17.848406   22.134276 C.3        1 MOL1         0.2972
      86    H41     25.674513   16.996352   22.462975 H          1 MOL1         0.0751
      87    O21     23.680341   17.486126   21.962653 O.3        1 MOL1        -0.3740
      88    C26     25.147882   18.983809   23.178312 C.3        1 MOL1         0.1003
      89    H42     26.193664   19.313981   23.227910 H          1 MOL1         0.0783
      90    O22     24.735574   18.514941   24.472597 O.3        1 MOL1        -0.5519
      91    H43     24.145390   17.733889   24.325999 H          1 MOL1         0.3769
      92    C27     24.286666   20.188629   22.741338 C.3        1 MOL1         0.1053
      93    H44     23.236324   19.884980   22.802716 H          1 MOL1         0.0783
      94    O23     24.520263   21.274645   23.641957 O.3        1 MOL1        -0.5519
      95    H45     24.411611   20.883183   24.537057 H          1 MOL1         0.3769
      96    C28     24.563626   20.625342   21.277794 C.3        1 MOL1         0.1018
      97    H46     25.440763   21.285448   21.258609 H          1 MOL1         0.0783
      98    C29     24.756250   19.431798   20.294758 C.3        1 MOL1         0.1043
      99    H47     23.759824   19.033237   20.065326 H          1 MOL1         0.0783
     100    O24     25.553346   18.371347   20.882909 O.3        1 MOL1        -0.3740
     101    C30     25.397078   19.841521   18.947746 C.3        1 MOL1         0.0138
     102    H48     24.673893   20.451079   18.389226 H          1 MOL1         0.0794
     103    H49     25.583888   18.934042   18.357850 H          1 MOL1         0.0794
     104    O25     26.613487   20.576274   19.130370 O.3        1 MOL1        -0.5486
     105    H50     27.001542   20.736506   18.242383 H          1 MOL1         0.3769
     106    C31     21.306969   14.033797   21.710018 C.3        1 MOL1         0.2972
     107    H51     21.004140   12.981552   21.634278 H          1 MOL1         0.0751
     108    O26     20.169774   14.913347   21.672813 O.3        1 MOL1        -0.3740
     109    C32     22.033127   14.272081   23.058942 C.3        1 MOL1         0.1003
     110    H52     22.893399   13.591214   23.096318 H          1 MOL1         0.0783
     111    O27     21.152904   13.985036   24.157631 O.3        1 MOL1        -0.5519
     112    H53     20.230492   14.084397   23.816616 H          1 MOL1         0.3769
     113    C33     22.565676   15.721528   23.158889 C.3        1 MOL1         0.1053
     114    H54     21.706731   16.404047   23.203234 H          1 MOL1         0.0783
     115    O28     23.358227   15.859390   24.342216 O.3        1 MOL1        -0.5519
     116    H55     22.835119   15.418190   25.048526 H          1 MOL1         0.3769
     117    C34     23.402417   16.075844   21.907947 C.3        1 MOL1         0.1018
     118    H56     24.320287   15.473139   21.913572 H          1 MOL1         0.0783
     119    C35     22.612944   15.783429   20.604272 C.3        1 MOL1         0.1043
     120    H57     21.731332   16.437406   20.584620 H          1 MOL1         0.0783
     121    O29     22.186145   14.396555   20.620501 O.3        1 MOL1        -0.3740
     122    C36     23.403789   16.046544   19.296219 C.3        1 MOL1         0.0138
     123    H58     23.261094   17.095831   19.008918 H          1 MOL1         0.0794
     124    H59     22.968107   15.435761   18.494244 H          1 MOL1         0.0794
     125    O30     24.804463   15.771953   19.417090 O.3        1 MOL1        -0.5486
     126    H60     25.205629   16.529484   19.903160 H          1 MOL1         0.3769
     127    C1      19.270535   18.264703   22.410784 C.3        1 MOL1        -0.1689
     128    H1      18.395595   18.794715   22.012779 H          1 MOL1         0.0830
     129    H2      19.483058   17.423504   21.746604 H          1 MOL1         0.0830
     130    C2      18.996023   17.778523   23.844324 C.3        1 MOL1        -0.1689
     131    H3      17.923110   17.652565   24.042422 H          1 MOL1         0.0830
     132    H4      19.486966   16.809324   24.006101 H          1 MOL1         0.0830
     133    C3      19.633813   18.835891   24.758350 C.3        1 MOL1        -0.1765
     134    H5      19.923901   18.414944   25.729230 H          1 MOL1         0.0830
     135    H6      18.918755   19.648398   24.935677 H          1 MOL1         0.0830
     136    C4      20.846130   19.363148   23.979376 C.3        1 MOL1         0.1214
     137    H7      21.717456   18.728143   24.195813 H          1 MOL1         0.0787
     138    C5      20.479787   19.218276   22.491451 C.3        1 MOL1        -0.1765
     139    H8      20.223106   20.190551   22.057177 H          1 MOL1         0.0830
     140    H9      21.330164   18.819146   21.926299 H          1 MOL1         0.0830
     141    O1      21.100709   20.722169   24.308688 O.3        1 MOL1        -0.5512
     142    H10     21.412454   20.729508   25.235892 H          1 MOL1         0.3776
@<TRIPOS>BOND
    1     1     2    1
    2     1     3    1
    3     1     4    1
    4     4     5    1
    5     4     6    1
    6     6     7    1
    7     4     8    1
    8     8     9    1
    9     8    10    1
   10    10    11    1
   11     8    12    1
   12    12    13    1
   13    12    14    1
   14    14    15    1
   15     1    16    1
   16    14    16    1
   17    14    17    1
   18    17    18    1
   19    17    19    1
   20    17    20    1
   21    20    21    1
   22    22    23    1
   23    22    24    1
   24    22    25    1
   25    25    26    1
   26    25    27    1
   27    27    28    1
   28    25    29    1
   29    29    30    1
   30    29    31    1
   31    31    32    1
   32     3    33    1
   33    29    33    1
   34    33    34    1
   35    33    35    1
   36    35    36    1
   37    22    37    1
   38    35    37    1
   39    35    38    1
   40    38    39    1
   41    38    40    1
   42    38    41    1
   43    41    42    1
   44    43    44    1
   45    43    45    1
   46    43    46    1
   47    46    47    1
   48    46    48    1
   49    48    49    1
   50    46    50    1
   51    50    51    1
   52    50    52    1
   53    52    53    1
   54    24    54    1
   55    50    54    1
   56    54    55    1
   57    54    56    1
   58    56    57    1
   59    43    58    1
   60    56    58    1
   61    56    59    1
   62    59    60    1
   63    59    61    1
   64    59    62    1
   65    62    63    1
   66    64    65    1
   67    64    66    1
   68    64    67    1
   69    67    68    1
   70    67    69    1
   71    69    70    1
   72    67    71    1
   73    71    72    1
   74    71    73    1
   75    73    74    1
   76    45    75    1
   77    71    75    1
   78    75    76    1
   79    75    77    1
   80    77    78    1
   81    64    79    1
   82    77    79    1
   83    77    80    1
   84    80    81    1
   85    80    82    1
   86    80    83    1
   87    83    84    1
   88    85    86    1
   89    85    87    1
   90    85    88    1
   91    88    89    1
   92    88    90    1
   93    90    91    1
   94    88    92    1
   95    92    93    1
   96    92    94    1
   97    94    95    1
   98    66    96    1
   99    92    96    1
  100    96    97    1
  101    96    98    1
  102    98    99    1
  103    85   100    1
  104    98   100    1
  105    98   101    1
  106   101   102    1
  107   101   103    1
  108   101   104    1
  109   104   105    1
  110   106   107    1
  111    12   108    1
  112   106   108    1
  113   106   109    1
  114   109   110    1
  115   109   111    1
  116   111   112    1
  117   109   113    1
  118   113   114    1
  119   113   115    1
  120   115   116    1
  121    87   117    1
  122   113   117    1
  123   117   118    1
  124   117   119    1
  125   119   120    1
  126   106   121    1
  127   119   121    1
  128   119   122    1
  129   122   123    1
  130   122   124    1
  131   122   125    1
  132   125   126    1
  133   127   128    1
  134   127   129    1
  135   127   130    1
  136   130   131    1
  137   130   132    1
  138   130   133    1
  139   133   134    1
  140   133   135    1
  141   133   136    1
  142   136   137    1
  143   127   138    1
  144   136   138    1
  145   138   139    1
  146   138   140    1
  147   136   141    1
  148   141   142    1
@<TRIPOS>SUBSTRUCTURE
       1 MOL1            1 RESIDUE      1      MOL     
       2 MOL1          142 RESIDUE      1      MOL     
@<SCITEGIC>MOL_PROPERTY
feprocess Rank
SciTegic.value.IntegerValue
5

@<SCITEGIC>MOL_PROPERTY
Conf_Id
SciTegic.value.IntegerValue
967

@<SCITEGIC>MOL_PROPERTY
Probability
SciTegic.value.DoubleValue
1.56

@<SCITEGIC>MOL_PROPERTY
G
SciTegic.value.DoubleValue
557.355

@<SCITEGIC>MOL_PROPERTY
E
SciTegic.value.DoubleValue
373.023

@<SCITEGIC>MOL_PROPERTY
-TS
SciTegic.value.DoubleValue
184.332

@<SCITEGIC>MOL_PROPERTY
U+W
SciTegic.value.DoubleValue
247.829

@<SCITEGIC>MOL_PROPERTY
U
SciTegic.value.DoubleValue
286.392

@<SCITEGIC>MOL_PROPERTY
W
SciTegic.value.DoubleValue
-38.562

@<SCITEGIC>MOL_PROPERTY
W(PB)
SciTegic.value.DoubleValue
-44.543

@<SCITEGIC>MOL_PROPERTY
W(SA)
SciTegic.value.DoubleValue
5.981

@<SCITEGIC>MOL_PROPERTY
Valence
SciTegic.value.DoubleValue
160.515

@<SCITEGIC>MOL_PROPERTY
Coulomb
SciTegic.value.DoubleValue
150.341

@<SCITEGIC>MOL_PROPERTY
VdW
SciTegic.value.DoubleValue
-24.465

@<SCITEGIC>MOL_PROPERTY
VdW6
SciTegic.value.DoubleValue
-174.688

@<SCITEGIC>MOL_PROPERTY
VdW12
SciTegic.value.DoubleValue
150.223

@<SCITEGIC>MOL_PROPERTY
Bond
SciTegic.value.DoubleValue
4.647

@<SCITEGIC>MOL_PROPERTY
Angle
SciTegic.value.DoubleValue
15.174

@<SCITEGIC>MOL_PROPERTY
Pdih
SciTegic.value.DoubleValue
140.694

@<SCITEGIC>MOL_PROPERTY
Idih
SciTegic.value.DoubleValue
0.000

@<SCITEGIC>MOL_PROPERTY
Tether
SciTegic.value.DoubleValue
0.000

@<TRIPOS>MOLECULE
CD_guest-4_fast_vm2_rndm.mol2 : feprocess host+ligand conformer 6
         142         148           2
SMALL
USER_CHARGES
 
@<TRIPOS>ATOM
       1    C1      16.166870   15.056506   21.614978 C.3        1 MOL1         0.2972
       2    H1      15.075697   14.960529   21.683321 H          1 MOL1         0.0751
       3    O1      16.588026   16.437775   21.672588 O.3        1 MOL1        -0.3740
       4    C2      16.825560   14.287365   22.783426 C.3        1 MOL1         0.1003
       5    H2      16.561925   13.226914   22.678389 H          1 MOL1         0.0783
       6    O2      16.346301   14.776731   24.046471 O.3        1 MOL1        -0.5519
       7    H3      16.027593   15.702496   23.899719 H          1 MOL1         0.3769
       8    C3      18.360511   14.412153   22.703746 C.3        1 MOL1         0.1053
       9    H4      18.604481   15.463076   22.887848 H          1 MOL1         0.0783
      10    O3      18.972156   13.593347   23.706484 O.3        1 MOL1        -0.5519
      11    H5      18.462148   13.776423   24.526777 H          1 MOL1         0.3769
      12    C4      18.905897   14.028578   21.306643 C.3        1 MOL1         0.1018
      13    H6      18.944316   12.933648   21.236197 H          1 MOL1         0.0783
      14    C5      18.072206   14.623063   20.132659 C.3        1 MOL1         0.1043
      15    H7      18.317931   15.688357   20.054632 H          1 MOL1         0.0783
      16    O4      16.648119   14.487149   20.380484 O.3        1 MOL1        -0.3740
      17    C6      18.389620   13.985273   18.759347 C.3        1 MOL1         0.0138
      18    H8      19.389544   14.312308   18.444756 H          1 MOL1         0.0794
      19    H9      17.674755   14.371642   18.020473 H          1 MOL1         0.0794
      20    O5      18.336214   12.553783   18.803073 O.3        1 MOL1        -0.5486
      21    H10     18.481754   12.222482   17.890123 H          1 MOL1         0.3769
      22    C7      14.838633   20.242819   21.267583 C.3        1 MOL1         0.2972
      23    H11     14.103164   21.033228   21.070939 H          1 MOL1         0.0751
      24    O6      16.129430   20.791031   21.589428 O.3        1 MOL1        -0.3740
      25    C8      14.385995   19.399582   22.487214 C.3        1 MOL1         0.1003
      26    H12     13.392345   18.992299   22.259580 H          1 MOL1         0.0783
      27    O7      14.304822   20.225892   23.659852 O.3        1 MOL1        -0.5519
      28    H13     14.986461   20.934778   23.555586 H          1 MOL1         0.3769
      29    C9      15.347364   18.211372   22.730860 C.3        1 MOL1         0.1053
      30    H14     16.320666   18.613776   23.040366 H          1 MOL1         0.0783
      31    O8      14.818521   17.368089   23.759180 O.3        1 MOL1        -0.5519
      32    H15     14.532116   17.984124   24.470070 H          1 MOL1         0.3769
      33    C10     15.546864   17.403532   21.428028 C.3        1 MOL1         0.1018
      34    H16     14.594292   16.923436   21.167306 H          1 MOL1         0.0783
      35    C11     15.974179   18.326041   20.255294 C.3        1 MOL1         0.1043
      36    H17     16.946326   18.772004   20.497951 H          1 MOL1         0.0783
      37    O9      14.985455   19.378885   20.116643 O.3        1 MOL1        -0.3740
      38    C12     16.136094   17.605920   18.891936 C.3        1 MOL1         0.0138
      39    H18     17.157593   17.209097   18.829917 H          1 MOL1         0.0794
      40    H19     16.033591   18.347878   18.089134 H          1 MOL1         0.0794
      41    O10     15.196423   16.542045   18.699707 O.3        1 MOL1        -0.5486
      42    H20     15.527865   15.770476   19.215817 H          1 MOL1         0.3769
      43    C13     18.499176   24.163718   20.930990 C.3        1 MOL1         0.2972
      44    H21     18.868619   25.155857   20.641559 H          1 MOL1         0.0751
      45    O11     19.558061   23.317093   21.420754 O.3        1 MOL1        -0.3740
      46    C14     17.457709   24.283813   22.071849 C.3        1 MOL1         0.1003
      47    H22     16.633604   24.909931   21.706047 H          1 MOL1         0.0783
      48    O12     18.047013   24.898826   23.229717 O.3        1 MOL1        -0.5519
      49    H23     18.963735   24.535163   23.318146 H          1 MOL1         0.3769
      50    C15     16.881345   22.892549   22.435001 C.3        1 MOL1         0.1053
      51    H24     17.686853   22.296170   22.884477 H          1 MOL1         0.0783
      52    O13     15.811894   23.043707   23.374900 O.3        1 MOL1        -0.5519
      53    H25     16.152770   23.669485   24.051890 H          1 MOL1         0.3769
      54    C16     16.374106   22.147853   21.175262 C.3        1 MOL1         0.1018
      55    H26     15.459015   22.644868   20.827515 H          1 MOL1         0.0783
      56    C17     17.433515   22.151362   20.035553 C.3        1 MOL1         0.1043
      57    H27     18.295980   21.555061   20.354071 H          1 MOL1         0.0783
      58    O14     17.864659   23.513503   19.807681 O.3        1 MOL1        -0.3740
      59    C18     16.959656   21.556460   18.685499 C.3        1 MOL1         0.0138
      60    H28     17.139090   20.474257   18.701823 H          1 MOL1         0.0794
      61    H29     17.586053   21.969374   17.883647 H          1 MOL1         0.0794
      62    O15     15.578177   21.809131   18.408226 O.3        1 MOL1        -0.5486
      63    H30     15.070256   21.086346   18.842954 H          1 MOL1         0.3769
      64    C19     23.666429   22.836756   21.375251 C.3        1 MOL1         0.2972
      65    H31     24.754861   22.944593   21.282471 H          1 MOL1         0.0751
      66    O16     23.279821   21.461449   21.570834 O.3        1 MOL1        -0.3740
      67    C20     23.122157   23.675846   22.560272 C.3        1 MOL1         0.1003
      68    H32     23.343057   24.729186   22.343816 H          1 MOL1         0.0783
      69    O17     23.752894   23.310753   23.797542 O.3        1 MOL1        -0.5519
      70    H33     23.668244   22.328216   23.895799 H          1 MOL1         0.3769
      71    C21     21.585562   23.522896   22.665247 C.3        1 MOL1         0.1053
      72    H34     21.364933   22.482555   22.937941 H          1 MOL1         0.0783
      73    O18     21.078646   24.402213   23.675291 O.3        1 MOL1        -0.5519
      74    H35     21.686607   24.291488   24.439872 H          1 MOL1         0.3769
      75    C22     20.897441   23.833030   21.312380 C.3        1 MOL1         0.1018
      76    H36     20.908693   24.921291   21.167656 H          1 MOL1         0.0783
      77    C23     21.586576   23.131101   20.107060 C.3        1 MOL1         0.1043
      78    H37     21.357261   22.058294   20.156522 H          1 MOL1         0.0783
      79    O19     23.022327   23.314899   20.176854 O.3        1 MOL1        -0.3740
      80    C24     21.107104   23.645729   18.728205 C.3        1 MOL1         0.0138
      81    H38     20.089830   23.275128   18.549467 H          1 MOL1         0.0794
      82    H39     21.749762   23.211766   17.950594 H          1 MOL1         0.0794
      83    O20     21.125946   25.076857   18.646958 O.3        1 MOL1        -0.5486
      84    H40     20.846810   25.326600   17.739230 H          1 MOL1         0.3769
      85    C25     24.793814   17.634463   21.959526 C.3        1 MOL1         0.2972
      86    H41     25.415541   16.742171   22.106925 H          1 MOL1         0.0751
      87    O21     23.481336   17.293491   21.473947 O.3        1 MOL1        -0.3740
      88    C26     24.638753   18.402915   23.295079 C.3        1 MOL1         0.1003
      89    H42     25.644882   18.700627   23.617935 H          1 MOL1         0.0783
      90    O22     24.043755   17.571063   24.305112 O.3        1 MOL1        -0.5519
      91    H43     24.057168   16.645038   23.961748 H          1 MOL1         0.3769
      92    C27     23.796208   19.683823   23.093299 C.3        1 MOL1         0.1053
      93    H44     22.773398   19.382213   22.843644 H          1 MOL1         0.0783
      94    O23     23.789128   20.439316   24.307760 O.3        1 MOL1        -0.5519
      95    H45     23.606743   19.775164   25.010197 H          1 MOL1         0.3769
      96    C28     24.334398   20.545350   21.925263 C.3        1 MOL1         0.1018
      97    H46     25.238569   21.066572   22.267017 H          1 MOL1         0.0783
      98    C29     24.648442   19.704642   20.654611 C.3        1 MOL1         0.1043
      99    H47     23.693707   19.398342   20.207892 H          1 MOL1         0.0783
     100    O24     25.409359   18.519911   21.001153 O.3        1 MOL1        -0.3740
     101    C30     25.429948   20.489605   19.573817 C.3        1 MOL1         0.0138
     102    H48     24.757373   21.236911   19.131266 H          1 MOL1         0.0794
     103    H49     25.716050   19.794217   18.773361 H          1 MOL1         0.0794
     104    O25     26.590335   21.138004   20.109999 O.3        1 MOL1        -0.5486
     105    H50     27.071506   21.553677   19.361439 H          1 MOL1         0.3769
     106    C31     21.266312   13.862367   20.631307 C.3        1 MOL1         0.2972
     107    H51     20.907224   12.895148   20.256680 H          1 MOL1         0.0751
     108    O26     20.214444   14.621525   21.252146 O.3        1 MOL1        -0.3740
     109    C32     22.366936   13.668852   21.706115 C.3        1 MOL1         0.1003
     110    H52     23.193260   13.118150   21.238263 H          1 MOL1         0.0783
     111    O27     21.859802   12.913937   22.819344 O.3        1 MOL1        -0.5519
     112    H53     20.972623   13.290834   23.047081 H          1 MOL1         0.3769
     113    C33     22.913102   15.036129   22.194335 C.3        1 MOL1         0.1053
     114    H54     22.113587   15.540946   22.748158 H          1 MOL1         0.0783
     115    O28     24.027455   14.814039   23.065725 O.3        1 MOL1        -0.5519
     116    H55     23.757713   14.056560   23.633157 H          1 MOL1         0.3769
     117    C34     23.315124   15.944115   21.000297 C.3        1 MOL1         0.1018
     118    H56     24.239729   15.558138   20.552028 H          1 MOL1         0.0783
     119    C35     22.209352   15.998241   19.913389 C.3        1 MOL1         0.1043
     120    H57     21.341861   16.523496   20.329904 H          1 MOL1         0.0783
     121    O29     21.823788   14.649510   19.555026 O.3        1 MOL1        -0.3740
     122    C36     22.620638   16.769502   18.634085 C.3        1 MOL1         0.0138
     123    H58     22.507101   17.844077   18.828937 H          1 MOL1         0.0794
     124    H59     21.918089   16.513305   17.830064 H          1 MOL1         0.0794
     125    O30     23.966096   16.496725   18.222714 O.3        1 MOL1        -0.5486
     126    H60     24.561978   16.911756   18.884195 H          1 MOL1         0.3769
     127    C1      19.184470   18.231040   24.332093 C.3        1 MOL1        -0.1689
     128    H1      18.261714   17.676462   24.114442 H          1 MOL1         0.0830
     129    H2      19.425091   18.092197   25.394598 H          1 MOL1         0.0830
     130    C2      19.009908   19.712721   23.961915 C.3        1 MOL1        -0.1689
     131    H3      17.984530   20.064110   24.139701 H          1 MOL1         0.0830
     132    H4      19.687651   20.326318   24.571362 H          1 MOL1         0.0830
     133    C3      19.414735   19.822816   22.476421 C.3        1 MOL1        -0.1765
     134    H5      20.082644   20.677651   22.318818 H          1 MOL1         0.0830
     135    H6      18.529326   19.974750   21.854139 H          1 MOL1         0.0830
     136    C4      20.118208   18.509126   22.090265 C.3        1 MOL1         0.1214
     137    H7      21.081440   18.705727   21.600111 H          1 MOL1         0.0787
     138    C5      20.315293   17.748468   23.410735 C.3        1 MOL1        -0.1765
     139    H8      20.315000   16.662892   23.278957 H          1 MOL1         0.0830
     140    H9      21.281460   18.023855   23.850122 H          1 MOL1         0.0830
     141    O1      19.272242   17.761502   21.228303 O.3        1 MOL1        -0.5512
     142    H10     18.505782   17.483417   21.770456 H          1 MOL1         0.3776
@<TRIPOS>BOND
    1     1     2    1
    2     1     3    1
    3     1     4    1
    4     4     5    1
    5     4     6    1
    6     6     7    1
    7     4     8    1
    8     8     9    1
    9     8    10    1
   10    10    11    1
   11     8    12    1
   12    12    13    1
   13    12    14    1
   14    14    15    1
   15     1    16    1
   16    14    16    1
   17    14    17    1
   18    17    18    1
   19    17    19    1
   20    17    20    1
   21    20    21    1
   22    22    23    1
   23    22    24    1
   24    22    25    1
   25    25    26    1
   26    25    27    1
   27    27    28    1
   28    25    29    1
   29    29    30    1
   30    29    31    1
   31    31    32    1
   32     3    33    1
   33    29    33    1
   34    33    34    1
   35    33    35    1
   36    35    36    1
   37    22    37    1
   38    35    37    1
   39    35    38    1
   40    38    39    1
   41    38    40    1
   42    38    41    1
   43    41    42    1
   44    43    44    1
   45    43    45    1
   46    43    46    1
   47    46    47    1
   48    46    48    1
   49    48    49    1
   50    46    50    1
   51    50    51    1
   52    50    52    1
   53    52    53    1
   54    24    54    1
   55    50    54    1
   56    54    55    1
   57    54    56    1
   58    56    57    1
   59    43    58    1
   60    56    58    1
   61    56    59    1
   62    59    60    1
   63    59    61    1
   64    59    62    1
   65    62    63    1
   66    64    65    1
   67    64    66    1
   68    64    67    1
   69    67    68    1
   70    67    69    1
   71    69    70    1
   72    67    71    1
   73    71    72    1
   74    71    73    1
   75    73    74    1
   76    45    75    1
   77    71    75    1
   78    75    76    1
   79    75    77    1
   80    77    78    1
   81    64    79    1
   82    77    79    1
   83    77    80    1
   84    80    81    1
   85    80    82    1
   86    80    83    1
   87    83    84    1
   88    85    86    1
   89    85    87    1
   90    85    88    1
   91    88    89    1
   92    88    90    1
   93    90    91    1
   94    88    92    1
   95    92    93    1
   96    92    94    1
   97    94    95    1
   98    66    96    1
   99    92    96    1
  100    96    97    1
  101    96    98    1
  102    98    99    1
  103    85   100    1
  104    98   100    1
  105    98   101    1
  106   101   102    1
  107   101   103    1
  108   101   104    1
  109   104   105    1
  110   106   107    1
  111    12   108    1
  112   106   108    1
  113   106   109    1
  114   109   110    1
  115   109   111    1
  116   111   112    1
  117   109   113    1
  118   113   114    1
  119   113   115    1
  120   115   116    1
  121    87   117    1
  122   113   117    1
  123   117   118    1
  124   117   119    1
  125   119   120    1
  126   106   121    1
  127   119   121    1
  128   119   122    1
  129   122   123    1
  130   122   124    1
  131   122   125    1
  132   125   126    1
  133   127   128    1
  134   127   129    1
  135   127   130    1
  136   130   131    1
  137   130   132    1
  138   130   133    1
  139   133   134    1
  140   133   135    1
  141   133   136    1
  142   136   137    1
  143   127   138    1
  144   136   138    1
  145   138   139    1
  146   138   140    1
  147   136   141    1
  148   141   142    1
@<TRIPOS>SUBSTRUCTURE
       1 MOL1            1 RESIDUE      1      MOL     
       2 MOL1          142 RESIDUE      1      MOL     
@<SCITEGIC>MOL_PROPERTY
feprocess Rank
SciTegic.value.IntegerValue
6

@<SCITEGIC>MOL_PROPERTY
Conf_Id
SciTegic.value.IntegerValue
216

@<SCITEGIC>MOL_PROPERTY
Probability
SciTegic.value.DoubleValue
1.48

@<SCITEGIC>MOL_PROPERTY
G
SciTegic.value.DoubleValue
557.389

@<SCITEGIC>MOL_PROPERTY
E
SciTegic.value.DoubleValue
374.371

@<SCITEGIC>MOL_PROPERTY
-TS
SciTegic.value.DoubleValue
183.018

@<SCITEGIC>MOL_PROPERTY
U+W
SciTegic.value.DoubleValue
249.177

@<SCITEGIC>MOL_PROPERTY
U
SciTegic.value.DoubleValue
284.921

@<SCITEGIC>MOL_PROPERTY
W
SciTegic.value.DoubleValue
-35.744

@<SCITEGIC>MOL_PROPERTY
W(PB)
SciTegic.value.DoubleValue
-41.759

@<SCITEGIC>MOL_PROPERTY
W(SA)
SciTegic.value.DoubleValue
6.015

@<SCITEGIC>MOL_PROPERTY
Valence
SciTegic.value.DoubleValue
160.930

@<SCITEGIC>MOL_PROPERTY
Coulomb
SciTegic.value.DoubleValue
149.294

@<SCITEGIC>MOL_PROPERTY
VdW
SciTegic.value.DoubleValue
-25.303

@<SCITEGIC>MOL_PROPERTY
VdW6
SciTegic.value.DoubleValue
-173.355

@<SCITEGIC>MOL_PROPERTY
VdW12
SciTegic.value.DoubleValue
148.052

@<SCITEGIC>MOL_PROPERTY
Bond
SciTegic.value.DoubleValue
4.460

@<SCITEGIC>MOL_PROPERTY
Angle
SciTegic.value.DoubleValue
14.481

@<SCITEGIC>MOL_PROPERTY
Pdih
SciTegic.value.DoubleValue
141.988

@<SCITEGIC>MOL_PROPERTY
Idih
SciTegic.value.DoubleValue
0.000

@<SCITEGIC>MOL_PROPERTY
Tether
SciTegic.value.DoubleValue
0.000

@<TRIPOS>MOLECULE
CD_guest-4_fast_vm2_rndm.mol2 : feprocess host+ligand conformer 7
         142         148           2
SMALL
USER_CHARGES
 
@<TRIPOS>ATOM
       1    C1      16.057053   15.047360   21.522089 C.3        1 MOL1         0.2972
       2    H1      14.968604   14.914257   21.570982 H          1 MOL1         0.0751
       3    O1      16.424478   16.438378   21.446254 O.3        1 MOL1        -0.3740
       4    C2      16.719090   14.449072   22.784532 C.3        1 MOL1         0.1003
       5    H2      16.522940   13.369009   22.790403 H          1 MOL1         0.0783
       6    O2      16.169091   15.044149   23.970016 O.3        1 MOL1        -0.5519
       7    H3      15.991319   15.992482   23.757176 H          1 MOL1         0.3769
       8    C3      18.246361   14.665689   22.734174 C.3        1 MOL1         0.1053
       9    H4      18.423036   15.743617   22.798136 H          1 MOL1         0.0783
      10    O3      18.867110   14.008886   23.843623 O.3        1 MOL1        -0.5519
      11    H5      18.309928   14.243872   24.619241 H          1 MOL1         0.3769
      12    C4      18.861948   14.165990   21.405214 C.3        1 MOL1         0.1018
      13    H6      18.967312   13.074203   21.457894 H          1 MOL1         0.0783
      14    C5      18.032963   14.574738   20.152131 C.3        1 MOL1         0.1043
      15    H7      18.218548   15.641043   19.973305 H          1 MOL1         0.0783
      16    O4      16.610897   14.375968   20.371446 O.3        1 MOL1        -0.3740
      17    C6      18.439949   13.819865   18.864278 C.3        1 MOL1         0.0138
      18    H8      19.428751   14.177568   18.546916 H          1 MOL1         0.0794
      19    H9      17.729541   14.077479   18.067199 H          1 MOL1         0.0794
      20    O5      18.476034   12.400962   19.060205 O.3        1 MOL1        -0.5486
      21    H10     18.664218   11.984635   18.190771 H          1 MOL1         0.3769
      22    C7      14.921028   20.205441   20.542674 C.3        1 MOL1         0.2972
      23    H11     14.316086   21.049573   20.187801 H          1 MOL1         0.0751
      24    O6      16.239641   20.633453   20.942554 O.3        1 MOL1        -0.3740
      25    C8      14.229823   19.485504   21.733382 C.3        1 MOL1         0.1003
      26    H12     13.260502   19.120152   21.370159 H          1 MOL1         0.0783
      27    O7      14.006542   20.374240   22.838953 O.3        1 MOL1        -0.5519
      28    H13     14.895321   20.689740   23.142099 H          1 MOL1         0.3769
      29    C9      15.059156   18.260122   22.187133 C.3        1 MOL1         0.1053
      30    H14     15.999850   18.626994   22.616897 H          1 MOL1         0.0783
      31    O8      14.328959   17.523345   23.173255 O.3        1 MOL1        -0.5519
      32    H15     14.023820   18.193587   23.823558 H          1 MOL1         0.3769
      33    C10     15.402210   17.339625   20.990147 C.3        1 MOL1         0.1018
      34    H16     14.489795   16.812071   20.682647 H          1 MOL1         0.0783
      35    C11     15.971235   18.130826   19.779870 C.3        1 MOL1         0.1043
      36    H17     16.958496   18.522683   20.056655 H          1 MOL1         0.0783
      37    O9      15.082193   19.235764   19.483399 O.3        1 MOL1        -0.3740
      38    C12     16.169565   17.295211   18.487275 C.3        1 MOL1         0.0138
      39    H18     17.192597   16.899855   18.481486 H          1 MOL1         0.0794
      40    H19     16.088159   17.966695   17.622108 H          1 MOL1         0.0794
      41    O10     15.238773   16.213803   18.357116 O.3        1 MOL1        -0.5486
      42    H20     15.530209   15.506245   18.978461 H          1 MOL1         0.3769
      43    C13     18.517544   23.977505   21.783633 C.3        1 MOL1         0.2972
      44    H21     18.914253   24.970686   22.030446 H          1 MOL1         0.0751
      45    O11     19.556114   23.079746   21.341813 O.3        1 MOL1        -0.3740
      46    C14     17.804386   23.355473   23.010921 C.3        1 MOL1         0.1003
      47    H22     16.943730   23.995515   23.245436 H          1 MOL1         0.0783
      48    O12     18.666094   23.296201   24.158093 O.3        1 MOL1        -0.5519
      49    H23     19.501780   23.766281   23.919824 H          1 MOL1         0.3769
      50    C15     17.273349   21.946967   22.658626 C.3        1 MOL1         0.1053
      51    H24     18.130869   21.305557   22.427653 H          1 MOL1         0.0783
      52    O13     16.567613   21.412537   23.783059 O.3        1 MOL1        -0.5519
      53    H25     17.073271   21.739012   24.562723 H          1 MOL1         0.3769
      54    C16     16.368158   21.993109   21.402900 C.3        1 MOL1         0.1018
      55    H26     15.399736   22.427582   21.684384 H          1 MOL1         0.0783
      56    C17     17.005364   22.812620   20.241015 C.3        1 MOL1         0.1043
      57    H27     17.827433   22.218012   19.821819 H          1 MOL1         0.0783
      58    O14     17.537832   24.072579   20.728273 O.3        1 MOL1        -0.3740
      59    C18     16.024511   23.114442   19.082720 C.3        1 MOL1         0.0138
      60    H28     15.826848   22.179978   18.540354 H          1 MOL1         0.0794
      61    H29     16.514326   23.801308   18.379504 H          1 MOL1         0.0794
      62    O15     14.791508   23.675626   19.550338 O.3        1 MOL1        -0.5486
      63    H30     14.258767   23.922430   18.762906 H          1 MOL1         0.3769
      64    C19     23.697397   22.825816   21.174067 C.3        1 MOL1         0.2972
      65    H31     24.768748   22.985769   20.996660 H          1 MOL1         0.0751
      66    O16     23.421668   21.487282   21.629158 O.3        1 MOL1        -0.3740
      67    C20     23.167582   23.795466   22.259727 C.3        1 MOL1         0.1003
      68    H32     23.337657   24.818371   21.899393 H          1 MOL1         0.0783
      69    O17     23.870595   23.604790   23.498763 O.3        1 MOL1        -0.5519
      70    H33     23.938645   22.628453   23.651760 H          1 MOL1         0.3769
      71    C21     21.643908   23.608919   22.474962 C.3        1 MOL1         0.1053
      72    H34     21.486326   22.623573   22.928678 H          1 MOL1         0.0783
      73    O18     21.171929   24.628310   23.361986 O.3        1 MOL1        -0.5519
      74    H35     21.864558   24.697876   24.057989 H          1 MOL1         0.3769
      75    C22     20.864152   23.644917   21.132235 C.3        1 MOL1         0.1018
      76    H36     20.803896   24.681310   20.776438 H          1 MOL1         0.0783
      77    C23     21.532921   22.766169   20.040151 C.3        1 MOL1         0.1043
      78    H37     21.404258   21.712866   20.318910 H          1 MOL1         0.0783
      79    O19     22.946664   23.064085   19.964399 O.3        1 MOL1        -0.3740
      80    C24     20.908352   22.935153   18.632656 C.3        1 MOL1         0.0138
      81    H38     19.940609   22.416524   18.616467 H          1 MOL1         0.0794
      82    H39     21.555914   22.432880   17.901848 H          1 MOL1         0.0794
      83    O20     20.724725   24.307890   18.265611 O.3        1 MOL1        -0.5486
      84    H40     19.967507   24.652217   18.786666 H          1 MOL1         0.3769
      85    C25     24.994293   17.706193   21.957028 C.3        1 MOL1         0.2972
      86    H41     25.613431   16.803802   22.043922 H          1 MOL1         0.0751
      87    O21     23.597612   17.379687   21.806250 O.3        1 MOL1        -0.3740
      88    C26     25.160745   18.575397   23.225512 C.3        1 MOL1         0.1003
      89    H42     26.214187   18.877363   23.290081 H          1 MOL1         0.0783
      90    O22     24.804276   17.824730   24.397590 O.3        1 MOL1        -0.5519
      91    H43     24.263542   17.055722   24.091121 H          1 MOL1         0.3769
      92    C27     24.297639   19.850547   23.117353 C.3        1 MOL1         0.1053
      93    H44     23.250492   19.531730   23.133786 H          1 MOL1         0.0783
      94    O23     24.556924   20.712855   24.230241 O.3        1 MOL1        -0.5519
      95    H45     24.539263   20.122064   25.015827 H          1 MOL1         0.3769
      96    C28     24.551670   20.610169   21.792566 C.3        1 MOL1         0.1018
      97    H46     25.496181   21.162345   21.885232 H          1 MOL1         0.0783
      98    C29     24.591624   19.673740   20.551009 C.3        1 MOL1         0.1043
      99    H47     23.560142   19.367064   20.340289 H          1 MOL1         0.0783
     100    O24     25.392643   18.492115   20.815058 O.3        1 MOL1        -0.3740
     101    C30     25.138908   20.355367   19.274110 C.3        1 MOL1         0.0138
     102    H48     24.396326   21.081787   18.918493 H          1 MOL1         0.0794
     103    H49     25.249454   19.594509   18.489729 H          1 MOL1         0.0794
     104    O25     26.389745   21.013795   19.509226 O.3        1 MOL1        -0.5486
     105    H50     26.705139   21.369424   18.649861 H          1 MOL1         0.3769
     106    C31     21.243440   14.043645   20.836166 C.3        1 MOL1         0.2972
     107    H51     20.914922   13.071702   20.445720 H          1 MOL1         0.0751
     108    O26     20.133761   14.833312   21.300015 O.3        1 MOL1        -0.3740
     109    C32     22.225927   13.863480   22.025414 C.3        1 MOL1         0.1003
     110    H52     23.082556   13.284953   21.655913 H          1 MOL1         0.0783
     111    O27     21.609204   13.147167   23.107340 O.3        1 MOL1        -0.5519
     112    H53     20.733271   13.574232   23.286966 H          1 MOL1         0.3769
     113    C33     22.754424   15.235220   22.516831 C.3        1 MOL1         0.1053
     114    H54     21.913835   15.798029   22.946372 H          1 MOL1         0.0783
     115    O28     23.764260   15.035284   23.511650 O.3        1 MOL1        -0.5519
     116    H55     23.404096   14.338702   24.105017 H          1 MOL1         0.3769
     117    C34     23.329086   16.048353   21.331926 C.3        1 MOL1         0.1018
     118    H56     24.239730   15.550309   20.973118 H          1 MOL1         0.0783
     119    C35     22.317095   16.139879   20.159457 C.3        1 MOL1         0.1043
     120    H57     21.441146   16.708518   20.496889 H          1 MOL1         0.0783
     121    O29     21.914261   14.795650   19.799465 O.3        1 MOL1        -0.3740
     122    C36     22.858512   16.849161   18.890802 C.3        1 MOL1         0.0138
     123    H58     22.652249   17.922862   18.978039 H          1 MOL1         0.0794
     124    H59     22.291982   16.489675   18.021462 H          1 MOL1         0.0794
     125    O30     24.261483   16.644259   18.681163 O.3        1 MOL1        -0.5486
     126    H60     24.739560   17.169953   19.364461 H          1 MOL1         0.3769
     127    C1      20.529206   20.142588   23.756426 C.3        1 MOL1        -0.1689
     128    H1      19.776036   20.919936   23.923338 H          1 MOL1         0.0830
     129    H2      21.513802   20.589485   23.937110 H          1 MOL1         0.0830
     130    C2      20.381496   19.559006   22.340725 C.3        1 MOL1        -0.1689
     131    H3      20.074208   20.319123   21.612077 H          1 MOL1         0.0830
     132    H4      21.339925   19.141310   22.006755 H          1 MOL1         0.0830
     133    C3      19.344068   18.423626   22.465637 C.3        1 MOL1        -0.1765
     134    H5      19.682916   17.534743   21.920422 H          1 MOL1         0.0830
     135    H6      18.384691   18.729953   22.029301 H          1 MOL1         0.0830
     136    C4      19.189904   18.113046   23.970548 C.3        1 MOL1         0.1214
     137    H7      19.366039   17.049328   24.178908 H          1 MOL1         0.0787
     138    C5      20.248949   18.959737   24.691591 C.3        1 MOL1        -0.1765
     139    H8      19.920414   19.285238   25.687359 H          1 MOL1         0.0830
     140    H9      21.163713   18.364782   24.814110 H          1 MOL1         0.0830
     141    O1      17.891947   18.495552   24.405718 O.3        1 MOL1        -0.5512
     142    H10     17.782099   19.436376   24.155748 H          1 MOL1         0.3776
@<TRIPOS>BOND
    1     1     2    1
    2     1     3    1
    3     1     4    1
    4     4     5    1
    5     4     6    1
    6     6     7    1
    7     4     8    1
    8     8     9    1
    9     8    10    1
   10    10    11    1
   11     8    12    1
   12    12    13    1
   13    12    14    1
   14    14    15    1
   15     1    16    1
   16    14    16    1
   17    14    17    1
   18    17    18    1
   19    17    19    1
   20    17    20    1
   21    20    21    1
   22    22    23    1
   23    22    24    1
   24    22    25    1
   25    25    26    1
   26    25    27    1
   27    27    28    1
   28    25    29    1
   29    29    30    1
   30    29    31    1
   31    31    32    1
   32     3    33    1
   33    29    33    1
   34    33    34    1
   35    33    35    1
   36    35    36    1
   37    22    37    1
   38    35    37    1
   39    35    38    1
   40    38    39    1
   41    38    40    1
   42    38    41    1
   43    41    42    1
   44    43    44    1
   45    43    45    1
   46    43    46    1
   47    46    47    1
   48    46    48    1
   49    48    49    1
   50    46    50    1
   51    50    51    1
   52    50    52    1
   53    52    53    1
   54    24    54    1
   55    50    54    1
   56    54    55    1
   57    54    56    1
   58    56    57    1
   59    43    58    1
   60    56    58    1
   61    56    59    1
   62    59    60    1
   63    59    61    1
   64    59    62    1
   65    62    63    1
   66    64    65    1
   67    64    66    1
   68    64    67    1
   69    67    68    1
   70    67    69    1
   71    69    70    1
   72    67    71    1
   73    71    72    1
   74    71    73    1
   75    73    74    1
   76    45    75    1
   77    71    75    1
   78    75    76    1
   79    75    77    1
   80    77    78    1
   81    64    79    1
   82    77    79    1
   83    77    80    1
   84    80    81    1
   85    80    82    1
   86    80    83    1
   87    83    84    1
   88    85    86    1
   89    85    87    1
   90    85    88    1
   91    88    89    1
   92    88    90    1
   93    90    91    1
   94    88    92    1
   95    92    93    1
   96    92    94    1
   97    94    95    1
   98    66    96    1
   99    92    96    1
  100    96    97    1
  101    96    98    1
  102    98    99    1
  103    85   100    1
  104    98   100    1
  105    98   101    1
  106   101   102    1
  107   101   103    1
  108   101   104    1
  109   104   105    1
  110   106   107    1
  111    12   108    1
  112   106   108    1
  113   106   109    1
  114   109   110    1
  115   109   111    1
  116   111   112    1
  117   109   113    1
  118   113   114    1
  119   113   115    1
  120   115   116    1
  121    87   117    1
  122   113   117    1
  123   117   118    1
  124   117   119    1
  125   119   120    1
  126   106   121    1
  127   119   121    1
  128   119   122    1
  129   122   123    1
  130   122   124    1
  131   122   125    1
  132   125   126    1
  133   127   128    1
  134   127   129    1
  135   127   130    1
  136   130   131    1
  137   130   132    1
  138   130   133    1
  139   133   134    1
  140   133   135    1
  141   133   136    1
  142   136   137    1
  143   127   138    1
  144   136   138    1
  145   138   139    1
  146   138   140    1
  147   136   141    1
  148   141   142    1
@<TRIPOS>SUBSTRUCTURE
       1 MOL1            1 RESIDUE      1      MOL     
       2 MOL1          142 RESIDUE      1      MOL     
@<SCITEGIC>MOL_PROPERTY
feprocess Rank
SciTegic.value.IntegerValue
7

@<SCITEGIC>MOL_PROPERTY
Conf_Id
SciTegic.value.IntegerValue
696

@<SCITEGIC>MOL_PROPERTY
Probability
SciTegic.value.DoubleValue
1.33

@<SCITEGIC>MOL_PROPERTY
G
SciTegic.value.DoubleValue
557.453

@<SCITEGIC>MOL_PROPERTY
E
SciTegic.value.DoubleValue
374.303

@<SCITEGIC>MOL_PROPERTY
-TS
SciTegic.value.DoubleValue
183.150

@<SCITEGIC>MOL_PROPERTY
U+W
SciTegic.value.DoubleValue
249.109

@<SCITEGIC>MOL_PROPERTY
U
SciTegic.value.DoubleValue
286.290

@<SCITEGIC>MOL_PROPERTY
W
SciTegic.value.DoubleValue
-37.181

@<SCITEGIC>MOL_PROPERTY
W(PB)
SciTegic.value.DoubleValue
-43.218

@<SCITEGIC>MOL_PROPERTY
W(SA)
SciTegic.value.DoubleValue
6.037

@<SCITEGIC>MOL_PROPERTY
Valence
SciTegic.value.DoubleValue
160.131

@<SCITEGIC>MOL_PROPERTY
Coulomb
SciTegic.value.DoubleValue
149.636

@<SCITEGIC>MOL_PROPERTY
VdW
SciTegic.value.DoubleValue
-23.477

@<SCITEGIC>MOL_PROPERTY
VdW6
SciTegic.value.DoubleValue
-171.056

@<SCITEGIC>MOL_PROPERTY
VdW12
SciTegic.value.DoubleValue
147.578

@<SCITEGIC>MOL_PROPERTY
Bond
SciTegic.value.DoubleValue
4.512

@<SCITEGIC>MOL_PROPERTY
Angle
SciTegic.value.DoubleValue
14.653

@<SCITEGIC>MOL_PROPERTY
Pdih
SciTegic.value.DoubleValue
140.966

@<SCITEGIC>MOL_PROPERTY
Idih
SciTegic.value.DoubleValue
0.000

@<SCITEGIC>MOL_PROPERTY
Tether
SciTegic.value.DoubleValue
0.000

@<TRIPOS>MOLECULE
CD_guest-4_fast_vm2_rndm.mol2 : feprocess host+ligand conformer 8
         142         148           2
SMALL
USER_CHARGES
 
@<TRIPOS>ATOM
       1    C1      16.249891   15.129102   21.658389 C.3        1 MOL1         0.2972
       2    H1      15.161817   15.084443   21.797862 H          1 MOL1         0.0751
       3    O1      16.708670   16.485322   21.484738 O.3        1 MOL1        -0.3740
       4    C2      16.959468   14.527178   22.891272 C.3        1 MOL1         0.1003
       5    H2      16.663859   13.472439   22.963395 H          1 MOL1         0.0783
       6    O2      16.561807   15.218448   24.087108 O.3        1 MOL1        -0.5519
       7    H3      16.042370   16.010488   23.803201 H          1 MOL1         0.3769
       8    C3      18.492588   14.588089   22.715505 C.3        1 MOL1         0.1053
       9    H4      18.788599   15.640882   22.748980 H          1 MOL1         0.0783
      10    O3      19.122447   13.884440   23.789112 O.3        1 MOL1        -0.5519
      11    H5      18.736203   14.274090   24.605207 H          1 MOL1         0.3769
      12    C4      18.963700   14.023091   21.351731 C.3        1 MOL1         0.1018
      13    H6      19.043300   12.930369   21.423980 H          1 MOL1         0.0783
      14    C5      18.054825   14.432941   20.156134 C.3        1 MOL1         0.1043
      15    H7      18.302941   15.470065   19.901037 H          1 MOL1         0.0783
      16    O4      16.647340   14.366653   20.500962 O.3        1 MOL1        -0.3740
      17    C6      18.294232   13.586739   18.883483 C.3        1 MOL1         0.0138
      18    H8      19.286809   13.833634   18.482766 H          1 MOL1         0.0794
      19    H9      17.554775   13.876171   18.124615 H          1 MOL1         0.0794
      20    O5      18.213100   12.180996   19.148574 O.3        1 MOL1        -0.5486
      21    H10     18.303761   11.710192   18.291286 H          1 MOL1         0.3769
      22    C7      14.992169   20.255011   20.782381 C.3        1 MOL1         0.2972
      23    H11     14.310010   21.043388   20.438738 H          1 MOL1         0.0751
      24    O6      16.212938   20.799918   21.314014 O.3        1 MOL1        -0.3740
      25    C8      14.337329   19.406347   21.906135 C.3        1 MOL1         0.1003
      26    H12     13.414632   18.976010   21.495681 H          1 MOL1         0.0783
      27    O7      14.009781   20.219413   23.044671 O.3        1 MOL1        -0.5519
      28    H13     14.789405   20.802592   23.228543 H          1 MOL1         0.3769
      29    C9      15.262942   18.235871   22.326607 C.3        1 MOL1         0.1053
      30    H14     16.163243   18.655559   22.796899 H          1 MOL1         0.0783
      31    O8      14.577350   17.390849   23.256840 O.3        1 MOL1        -0.5519
      32    H15     14.135911   18.007894   23.882934 H          1 MOL1         0.3769
      33    C10     15.697180   17.424350   21.081942 C.3        1 MOL1         0.1018
      34    H16     14.816811   16.917657   20.664256 H          1 MOL1         0.0783
      35    C11     16.303249   18.344453   19.991240 C.3        1 MOL1         0.1043
      36    H17     17.219486   18.802209   20.386501 H          1 MOL1         0.0783
      37    O9      15.337856   19.379189   19.684592 O.3        1 MOL1        -0.3740
      38    C12     16.687256   17.613763   18.678173 C.3        1 MOL1         0.0138
      39    H18     17.721265   17.258656   18.770268 H          1 MOL1         0.0794
      40    H19     16.675467   18.341386   17.855777 H          1 MOL1         0.0794
      41    O10     15.825243   16.509688   18.371639 O.3        1 MOL1        -0.5486
      42    H20     15.984609   15.813933   19.050768 H          1 MOL1         0.3769
      43    C13     18.457225   24.215141   21.655520 C.3        1 MOL1         0.2972
      44    H21     18.864382   25.231970   21.726051 H          1 MOL1         0.0751
      45    O11     19.501978   23.223090   21.643185 O.3        1 MOL1        -0.3740
      46    C14     17.544582   23.934576   22.872052 C.3        1 MOL1         0.1003
      47    H22     16.719238   24.657837   22.844010 H          1 MOL1         0.0783
      48    O12     18.281930   24.096700   24.094537 O.3        1 MOL1        -0.5519
      49    H23     19.233850   23.942213   23.877212 H          1 MOL1         0.3769
      50    C15     16.942098   22.513840   22.788710 C.3        1 MOL1         0.1053
      51    H24     17.755790   21.795704   22.925622 H          1 MOL1         0.0783
      52    O13     15.975920   22.337276   23.829352 O.3        1 MOL1        -0.5519
      53    H25     16.411427   22.682946   24.640170 H          1 MOL1         0.3769
      54    C16     16.293501   22.234082   21.411818 C.3        1 MOL1         0.1018
      55    H26     15.303906   22.709474   21.391241 H          1 MOL1         0.0783
      56    C17     17.156057   22.725400   20.213160 C.3        1 MOL1         0.1043
      57    H27     17.998793   22.030677   20.105913 H          1 MOL1         0.0783
      58    O14     17.672422   24.059734   20.456003 O.3        1 MOL1        -0.3740
      59    C18     16.396494   22.735543   18.864956 C.3        1 MOL1         0.0138
      60    H28     16.233873   21.697038   18.547012 H          1 MOL1         0.0794
      61    H29     17.033173   23.211615   18.107157 H          1 MOL1         0.0794
      62    O15     15.139765   23.417579   18.958985 O.3        1 MOL1        -0.5486
      63    H30     14.747017   23.443870   18.059240 H          1 MOL1         0.3769
      64    C19     23.567279   22.743355   20.886696 C.3        1 MOL1         0.2972
      65    H31     24.616006   22.864100   20.586155 H          1 MOL1         0.0751
      66    O16     23.265588   21.369376   21.208606 O.3        1 MOL1        -0.3740
      67    C20     23.216668   23.654838   22.095920 C.3        1 MOL1         0.1003
      68    H32     23.356054   24.692896   21.767063 H          1 MOL1         0.0783
      69    O17     24.070741   23.411594   23.223262 O.3        1 MOL1        -0.5519
      70    H33     23.919017   22.474766   23.506801 H          1 MOL1         0.3769
      71    C21     21.729601   23.477920   22.488243 C.3        1 MOL1         0.1053
      72    H34     21.593335   22.449864   22.847163 H          1 MOL1         0.0783
      73    O18     21.382907   24.403125   23.524465 O.3        1 MOL1        -0.5519
      74    H35     22.128147   24.364749   24.164272 H          1 MOL1         0.3769
      75    C22     20.807971   23.693016   21.262756 C.3        1 MOL1         0.1018
      76    H36     20.807838   24.763101   21.017322 H          1 MOL1         0.0783
      77    C23     21.278098   22.884870   20.020143 C.3        1 MOL1         0.1043
      78    H37     21.123932   21.818511   20.223435 H          1 MOL1         0.0783
      79    O19     22.691716   23.129523   19.802013 O.3        1 MOL1        -0.3740
      80    C24     20.510827   23.198470   18.708783 C.3        1 MOL1         0.0138
      81    H38     19.650712   22.521193   18.638821 H          1 MOL1         0.0794
      82    H39     21.165070   22.966166   17.857909 H          1 MOL1         0.0794
      83    O20     20.057340   24.554463   18.623204 O.3        1 MOL1        -0.5486
      84    H40     19.246536   24.620076   19.179683 H          1 MOL1         0.3769
      85    C25     24.738035   17.655119   22.128801 C.3        1 MOL1         0.2972
      86    H41     25.319853   16.770708   22.418463 H          1 MOL1         0.0751
      87    O21     23.470871   17.291116   21.550049 O.3        1 MOL1        -0.3740
      88    C26     24.471316   18.540993   23.368211 C.3        1 MOL1         0.1003
      89    H42     25.446866   18.827950   23.781799 H          1 MOL1         0.0783
      90    O22     23.715646   17.825433   24.362569 O.3        1 MOL1        -0.5519
      91    H43     23.770209   16.865762   24.132447 H          1 MOL1         0.3769
      92    C27     23.709091   19.823750   22.974513 C.3        1 MOL1         0.1053
      93    H44     22.692457   19.518140   22.701511 H          1 MOL1         0.0783
      94    O23     23.670446   20.697800   24.106576 O.3        1 MOL1        -0.5519
      95    H45     23.435611   20.113901   24.862132 H          1 MOL1         0.3769
      96    C28     24.323874   20.554100   21.752791 C.3        1 MOL1         0.1018
      97    H46     25.180283   21.153154   22.089295 H          1 MOL1         0.0783
      98    C29     24.758523   19.582971   20.618181 C.3        1 MOL1         0.1043
      99    H47     23.850251   19.232879   20.111486 H          1 MOL1         0.0783
     100    O24     25.464688   18.438630   21.159753 O.3        1 MOL1        -0.3740
     101    C30     25.649210   20.248474   19.541964 C.3        1 MOL1         0.0138
     102    H48     25.029334   20.941681   18.957423 H          1 MOL1         0.0794
     103    H49     26.006510   19.471198   18.853183 H          1 MOL1         0.0794
     104    O25     26.756876   20.953673   20.115776 O.3        1 MOL1        -0.5486
     105    H50     27.317769   21.279016   19.377983 H          1 MOL1         0.3769
     106    C31     21.333603   13.822415   20.693739 C.3        1 MOL1         0.2972
     107    H51     20.996221   12.837573   20.345744 H          1 MOL1         0.0751
     108    O26     20.232816   14.653472   21.104158 O.3        1 MOL1        -0.3740
     109    C32     22.318372   13.698542   21.887227 C.3        1 MOL1         0.1003
     110    H52     23.203035   13.160399   21.522646 H          1 MOL1         0.0783
     111    O27     21.744580   12.959155   22.975455 O.3        1 MOL1        -0.5519
     112    H53     20.882850   13.390514   23.206689 H          1 MOL1         0.3769
     113    C33     22.777615   15.102420   22.357989 C.3        1 MOL1         0.1053
     114    H54     21.904858   15.636949   22.758311 H          1 MOL1         0.0783
     115    O28     23.767154   14.957852   23.383455 O.3        1 MOL1        -0.5519
     116    H55     23.421427   14.246229   23.968495 H          1 MOL1         0.3769
     117    C34     23.343387   15.913246   21.160495 C.3        1 MOL1         0.1018
     118    H56     24.312230   15.486196   20.870659 H          1 MOL1         0.0783
     119    C35     22.395546   15.889699   19.931509 C.3        1 MOL1         0.1043
     120    H57     21.493285   16.463107   20.181676 H          1 MOL1         0.0783
     121    O29     22.027478   14.519249   19.634025 O.3        1 MOL1        -0.3740
     122    C36     22.997280   16.542212   18.660533 C.3        1 MOL1         0.0138
     123    H58     22.867981   17.629700   18.736700 H          1 MOL1         0.0794
     124    H59     22.417489   16.211058   17.788760 H          1 MOL1         0.0794
     125    O30     24.385523   16.238314   18.475621 O.3        1 MOL1        -0.5486
     126    H60     24.884107   16.717574   19.173725 H          1 MOL1         0.3769
     127    C1      19.892570   19.826062   22.339595 C.3        1 MOL1        -0.1689
     128    H1      20.730043   20.151799   21.711504 H          1 MOL1         0.0830
     129    H2      18.966558   20.203898   21.887904 H          1 MOL1         0.0830
     130    C2      20.016798   20.337954   23.784593 C.3        1 MOL1        -0.1689
     131    H3      21.064303   20.319844   24.102258 H          1 MOL1         0.0830
     132    H4      19.650605   21.363923   23.911140 H          1 MOL1         0.0830
     133    C3      19.224544   19.320940   24.615977 C.3        1 MOL1        -0.1765
     134    H5      18.157116   19.576829   24.588581 H          1 MOL1         0.0830
     135    H6      19.541856   19.305337   25.666897 H          1 MOL1         0.0830
     136    C4      19.436868   17.968390   23.917156 C.3        1 MOL1         0.1214
     137    H7      18.507740   17.383807   23.963464 H          1 MOL1         0.0787
     138    C5      19.816512   18.290290   22.455250 C.3        1 MOL1        -0.1765
     139    H8      20.784558   17.841517   22.197767 H          1 MOL1         0.0830
     140    H9      19.072096   17.884152   21.760007 H          1 MOL1         0.0830
     141    O1      20.502483   17.262058   24.541108 O.3        1 MOL1        -0.5512
     142    H10     21.305192   17.816786   24.444406 H          1 MOL1         0.3776
@<TRIPOS>BOND
    1     1     2    1
    2     1     3    1
    3     1     4    1
    4     4     5    1
    5     4     6    1
    6     6     7    1
    7     4     8    1
    8     8     9    1
    9     8    10    1
   10    10    11    1
   11     8    12    1
   12    12    13    1
   13    12    14    1
   14    14    15    1
   15     1    16    1
   16    14    16    1
   17    14    17    1
   18    17    18    1
   19    17    19    1
   20    17    20    1
   21    20    21    1
   22    22    23    1
   23    22    24    1
   24    22    25    1
   25    25    26    1
   26    25    27    1
   27    27    28    1
   28    25    29    1
   29    29    30    1
   30    29    31    1
   31    31    32    1
   32     3    33    1
   33    29    33    1
   34    33    34    1
   35    33    35    1
   36    35    36    1
   37    22    37    1
   38    35    37    1
   39    35    38    1
   40    38    39    1
   41    38    40    1
   42    38    41    1
   43    41    42    1
   44    43    44    1
   45    43    45    1
   46    43    46    1
   47    46    47    1
   48    46    48    1
   49    48    49    1
   50    46    50    1
   51    50    51    1
   52    50    52    1
   53    52    53    1
   54    24    54    1
   55    50    54    1
   56    54    55    1
   57    54    56    1
   58    56    57    1
   59    43    58    1
   60    56    58    1
   61    56    59    1
   62    59    60    1
   63    59    61    1
   64    59    62    1
   65    62    63    1
   66    64    65    1
   67    64    66    1
   68    64    67    1
   69    67    68    1
   70    67    69    1
   71    69    70    1
   72    67    71    1
   73    71    72    1
   74    71    73    1
   75    73    74    1
   76    45    75    1
   77    71    75    1
   78    75    76    1
   79    75    77    1
   80    77    78    1
   81    64    79    1
   82    77    79    1
   83    77    80    1
   84    80    81    1
   85    80    82    1
   86    80    83    1
   87    83    84    1
   88    85    86    1
   89    85    87    1
   90    85    88    1
   91    88    89    1
   92    88    90    1
   93    90    91    1
   94    88    92    1
   95    92    93    1
   96    92    94    1
   97    94    95    1
   98    66    96    1
   99    92    96    1
  100    96    97    1
  101    96    98    1
  102    98    99    1
  103    85   100    1
  104    98   100    1
  105    98   101    1
  106   101   102    1
  107   101   103    1
  108   101   104    1
  109   104   105    1
  110   106   107    1
  111    12   108    1
  112   106   108    1
  113   106   109    1
  114   109   110    1
  115   109   111    1
  116   111   112    1
  117   109   113    1
  118   113   114    1
  119   113   115    1
  120   115   116    1
  121    87   117    1
  122   113   117    1
  123   117   118    1
  124   117   119    1
  125   119   120    1
  126   106   121    1
  127   119   121    1
  128   119   122    1
  129   122   123    1
  130   122   124    1
  131   122   125    1
  132   125   126    1
  133   127   128    1
  134   127   129    1
  135   127   130    1
  136   130   131    1
  137   130   132    1
  138   130   133    1
  139   133   134    1
  140   133   135    1
  141   133   136    1
  142   136   137    1
  143   127   138    1
  144   136   138    1
  145   138   139    1
  146   138   140    1
  147   136   141    1
  148   141   142    1
@<TRIPOS>SUBSTRUCTURE
       1 MOL1            1 RESIDUE      1      MOL     
       2 MOL1          142 RESIDUE      1      MOL     
@<SCITEGIC>MOL_PROPERTY
feprocess Rank
SciTegic.value.IntegerValue
8

@<SCITEGIC>MOL_PROPERTY
Conf_Id
SciTegic.value.IntegerValue
321

@<SCITEGIC>MOL_PROPERTY
Probability
SciTegic.value.DoubleValue
1.28

@<SCITEGIC>MOL_PROPERTY
G
SciTegic.value.DoubleValue
557.475

@<SCITEGIC>MOL_PROPERTY
E
SciTegic.value.DoubleValue
374.419

@<SCITEGIC>MOL_PROPERTY
-TS
SciTegic.value.DoubleValue
183.055

@<SCITEGIC>MOL_PROPERTY
U+W
SciTegic.value.DoubleValue
249.225

@<SCITEGIC>MOL_PROPERTY
U
SciTegic.value.DoubleValue
285.545

@<SCITEGIC>MOL_PROPERTY
W
SciTegic.value.DoubleValue
-36.319

@<SCITEGIC>MOL_PROPERTY
W(PB)
SciTegic.value.DoubleValue
-42.310

@<SCITEGIC>MOL_PROPERTY
W(SA)
SciTegic.value.DoubleValue
5.990

@<SCITEGIC>MOL_PROPERTY
Valence
SciTegic.value.DoubleValue
160.824

@<SCITEGIC>MOL_PROPERTY
Coulomb
SciTegic.value.DoubleValue
148.357

@<SCITEGIC>MOL_PROPERTY
VdW
SciTegic.value.DoubleValue
-23.636

@<SCITEGIC>MOL_PROPERTY
VdW6
SciTegic.value.DoubleValue
-172.348

@<SCITEGIC>MOL_PROPERTY
VdW12
SciTegic.value.DoubleValue
148.712

@<SCITEGIC>MOL_PROPERTY
Bond
SciTegic.value.DoubleValue
4.529

@<SCITEGIC>MOL_PROPERTY
Angle
SciTegic.value.DoubleValue
15.543

@<SCITEGIC>MOL_PROPERTY
Pdih
SciTegic.value.DoubleValue
140.752

@<SCITEGIC>MOL_PROPERTY
Idih
SciTegic.value.DoubleValue
0.000

@<SCITEGIC>MOL_PROPERTY
Tether
SciTegic.value.DoubleValue
0.000

