@<TRIPOS>MOLECULE
CD_guest-s21_fast_vm2_rndm.mol2 : feprocess host+ligand conformer 1
         148         153           2
SMALL
USER_CHARGES
 
@<TRIPOS>ATOM
       1    C1      16.280023   15.105415   20.324020 C.3        1 MOL1         0.2972
       2    H1      15.286119   15.015114   19.867477 H          1 MOL1         0.0751
       3    O1      16.574593   16.476914   20.673271 O.3        1 MOL1        -0.3740
       4    C2      16.412995   14.183618   21.565003 C.3        1 MOL1         0.1003
       5    H2      16.304095   13.152440   21.204397 H          1 MOL1         0.0783
       6    O2      15.393180   14.435555   22.543030 O.3        1 MOL1        -0.5519
       7    H3      15.573628   15.336984   22.911275 H          1 MOL1         0.3769
       8    C3      17.818206   14.311576   22.201559 C.3        1 MOL1         0.1053
       9    H4      17.896080   15.304674   22.665102 H          1 MOL1         0.0783
      10    O3      17.962183   13.294361   23.198135 O.3        1 MOL1        -0.5519
      11    H5      17.173611   13.380224   23.776264 H          1 MOL1         0.3769
      12    C4      18.958551   14.183631   21.155517 C.3        1 MOL1         0.1018
      13    H6      19.132238   13.116795   20.965554 H          1 MOL1         0.0783
      14    C5      18.661072   14.909118   19.809858 C.3        1 MOL1         0.1043
      15    H7      18.786222   15.981333   19.980532 H          1 MOL1         0.0783
      16    O4      17.294030   14.662391   19.395690 O.3        1 MOL1        -0.3740
      17    C6      19.611411   14.545904   18.637200 C.3        1 MOL1         0.0138
      18    H8      20.408467   15.297899   18.590433 H          1 MOL1         0.0794
      19    H9      19.051718   14.629178   17.696003 H          1 MOL1         0.0794
      20    O5      20.189323   13.239084   18.747014 O.3        1 MOL1        -0.5486
      21    H10     20.832008   13.266491   19.494249 H          1 MOL1         0.3769
      22    C7      14.965892   20.157866   21.684539 C.3        1 MOL1         0.2972
      23    H11     14.323189   20.996568   21.981385 H          1 MOL1         0.0751
      24    O6      16.254907   20.613939   21.228921 O.3        1 MOL1        -0.3740
      25    C8      15.162656   19.186595   22.875795 C.3        1 MOL1         0.1003
      26    H12     14.168866   18.809241   23.149887 H          1 MOL1         0.0783
      27    O7      15.741159   19.846581   24.012861 O.3        1 MOL1        -0.5519
      28    H13     15.767026   20.812301   23.807135 H          1 MOL1         0.3769
      29    C9      16.034913   17.979135   22.466266 C.3        1 MOL1         0.1053
      30    H14     17.049663   18.346579   22.261826 H          1 MOL1         0.0783
      31    O8      16.061664   17.051000   23.555231 O.3        1 MOL1        -0.5519
      32    H15     16.255390   17.607165   24.343439 H          1 MOL1         0.3769
      33    C10     15.500173   17.294452   21.181932 C.3        1 MOL1         0.1018
      34    H16     14.613957   16.699985   21.438766 H          1 MOL1         0.0783
      35    C11     15.138960   18.319740   20.068830 C.3        1 MOL1         0.1043
      36    H17     16.074273   18.722872   19.663053 H          1 MOL1         0.0783
      37    O9      14.352182   19.411671   20.611945 O.3        1 MOL1        -0.3740
      38    C12     14.362715   17.695693   18.884701 C.3        1 MOL1         0.0138
      39    H18     15.050238   17.051558   18.319989 H          1 MOL1         0.0794
      40    H19     14.044310   18.502461   18.210997 H          1 MOL1         0.0794
      41    O10     13.229981   16.933063   19.320025 O.3        1 MOL1        -0.5486
      42    H20     12.745130   16.635938   18.519316 H          1 MOL1         0.3769
      43    C13     18.497148   24.123209   21.092721 C.3        1 MOL1         0.2972
      44    H21     18.864217   25.144841   20.930461 H          1 MOL1         0.0751
      45    O11     19.557047   23.225479   21.469752 O.3        1 MOL1        -0.3740
      46    C14     17.434015   24.086739   22.218961 C.3        1 MOL1         0.1003
      47    H22     16.600390   24.726543   21.901417 H          1 MOL1         0.0783
      48    O12     17.969872   24.591166   23.453034 O.3        1 MOL1        -0.5519
      49    H23     18.847969   24.154132   23.595374 H          1 MOL1         0.3769
      50    C15     16.884974   22.650495   22.415727 C.3        1 MOL1         0.1053
      51    H24     17.695675   22.024323   22.813736 H          1 MOL1         0.0783
      52    O13     15.803631   22.700146   23.352437 O.3        1 MOL1        -0.5519
      53    H25     16.108019   23.317956   24.055770 H          1 MOL1         0.3769
      54    C16     16.413605   22.037577   21.067730 C.3        1 MOL1         0.1018
      55    H26     15.471715   22.514182   20.767727 H          1 MOL1         0.0783
      56    C17     17.460552   22.233282   19.937771 C.3        1 MOL1         0.1043
      57    H27     18.329446   21.603007   20.163138 H          1 MOL1         0.0783
      58    O14     17.879762   23.618027   19.890010 O.3        1 MOL1        -0.3740
      59    C18     16.949413   21.821580   18.534056 C.3        1 MOL1         0.0138
      60    H28     16.924528   20.725909   18.476437 H          1 MOL1         0.0794
      61    H29     17.674703   22.166321   17.785263 H          1 MOL1         0.0794
      62    O15     15.648550   22.345382   18.239565 O.3        1 MOL1        -0.5486
      63    H30     15.000458   21.832821   18.769184 H          1 MOL1         0.3769
      64    C19     23.624829   22.832615   21.846122 C.3        1 MOL1         0.2972
      65    H31     24.711863   22.940562   21.952850 H          1 MOL1         0.0751
      66    O16     23.246096   21.465844   21.582986 O.3        1 MOL1        -0.3740
      67    C20     22.914129   23.294312   23.141677 C.3        1 MOL1         0.1003
      68    H32     23.137534   24.360209   23.279569 H          1 MOL1         0.0783
      69    O17     23.391546   22.560095   24.280369 O.3        1 MOL1        -0.5519
      70    H33     23.849688   21.754721   23.934045 H          1 MOL1         0.3769
      71    C21     21.382315   23.140950   23.001395 C.3        1 MOL1         0.1053
      72    H34     21.159793   22.070472   22.943076 H          1 MOL1         0.0783
      73    O18     20.735221   23.704845   24.146754 O.3        1 MOL1        -0.5519
      74    H35     21.234076   23.349265   24.915917 H          1 MOL1         0.3769
      75    C22     20.849493   23.810765   21.710991 C.3        1 MOL1         0.1018
      76    H36     20.789778   24.893674   21.882044 H          1 MOL1         0.0783
      77    C23     21.723213   23.509639   20.460158 C.3        1 MOL1         0.1043
      78    H37     21.531544   22.471760   20.162053 H          1 MOL1         0.0783
      79    O19     23.132117   23.657101   20.769546 O.3        1 MOL1        -0.3740
      80    C24     21.390238   24.403109   19.241589 C.3        1 MOL1         0.0138
      81    H38     20.411875   24.100215   18.844693 H          1 MOL1         0.0794
      82    H39     22.133470   24.213516   18.455611 H          1 MOL1         0.0794
      83    O20     21.367249   25.795517   19.581031 O.3        1 MOL1        -0.5486
      84    H40     21.213086   26.301114   18.753392 H          1 MOL1         0.3769
      85    C25     24.795148   17.689490   20.826533 C.3        1 MOL1         0.2972
      86    H41     25.398417   16.829074   20.510001 H          1 MOL1         0.0751
      87    O21     23.470943   17.284881   21.228979 O.3        1 MOL1        -0.3740
      88    C26     25.483141   18.457800   21.987387 C.3        1 MOL1         0.1003
      89    H42     26.440167   18.832792   21.601895 H          1 MOL1         0.0783
      90    O22     25.742005   17.607747   23.114512 O.3        1 MOL1        -0.5519
      91    H43     24.867474   17.254208   23.418400 H          1 MOL1         0.3769
      92    C27     24.631608   19.680311   22.407733 C.3        1 MOL1         0.1053
      93    H44     23.685071   19.310032   22.823580 H          1 MOL1         0.0783
      94    O23     25.332851   20.436141   23.400503 O.3        1 MOL1        -0.5519
      95    H45     25.707073   19.765041   24.014542 H          1 MOL1         0.3769
      96    C28     24.307645   20.577028   21.185920 C.3        1 MOL1         0.1018
      97    H46     25.211432   21.125416   20.889458 H          1 MOL1         0.0783
      98    C29     23.793323   19.759027   19.970086 C.3        1 MOL1         0.1043
      99    H47     22.777586   19.409738   20.197323 H          1 MOL1         0.0783
     100    O24     24.653488   18.615976   19.730841 O.3        1 MOL1        -0.3740
     101    C30     23.727184   20.589891   18.665886 C.3        1 MOL1         0.0138
     102    H48     22.941138   21.347472   18.775002 H          1 MOL1         0.0794
     103    H49     23.429650   19.926259   17.843201 H          1 MOL1         0.0794
     104    O25     24.975544   21.226759   18.363544 O.3        1 MOL1        -0.5486
     105    H50     24.864563   21.715825   17.519891 H          1 MOL1         0.3769
     106    C31     21.178878   13.957961   22.153704 C.3        1 MOL1         0.2972
     107    H51     20.797211   12.968531   22.436707 H          1 MOL1         0.0751
     108    O26     20.109782   14.828324   21.735552 O.3        1 MOL1        -0.3740
     109    C32     21.917024   14.596483   23.358180 C.3        1 MOL1         0.1003
     110    H52     22.780769   13.959247   23.587248 H          1 MOL1         0.0783
     111    O27     21.055506   14.635596   24.506802 O.3        1 MOL1        -0.5519
     112    H53     21.125582   15.536174   24.914065 H          1 MOL1         0.3769
     113    C33     22.454442   15.998688   22.981316 C.3        1 MOL1         0.1053
     114    H54     21.595692   16.648844   22.774324 H          1 MOL1         0.0783
     115    O28     23.236021   16.539883   24.054639 O.3        1 MOL1        -0.5519
     116    H55     22.586628   16.852386   24.738558 H          1 MOL1         0.3769
     117    C34     23.320708   15.929409   21.699640 C.3        1 MOL1         0.1018
     118    H56     24.286487   15.471835   21.952497 H          1 MOL1         0.0783
     119    C35     22.631604   15.124469   20.561604 C.3        1 MOL1         0.1043
     120    H57     21.798134   15.735107   20.194206 H          1 MOL1         0.0783
     121    O29     22.114013   13.859612   21.056692 O.3        1 MOL1        -0.3740
     122    C36     23.557588   14.836407   19.355820 C.3        1 MOL1         0.0138
     123    H58     23.747086   15.781281   18.828528 H          1 MOL1         0.0794
     124    H59     23.029609   14.173921   18.656867 H          1 MOL1         0.0794
     125    O30     24.799766   14.246943   19.759401 O.3        1 MOL1        -0.5486
     126    H60     25.299164   14.017231   18.945698 H          1 MOL1         0.3769
     127    C1      20.083480   17.994902   25.490759 C.2        1 MOL1         0.6145
     128    O1      19.562854   18.545476   26.440554 O.co2      1 MOL1        -0.6735
     129    O2      21.026245   17.230441   25.584205 O.co2      1 MOL1        -0.6735
     130    C2      19.541932   18.290652   24.095787 C.3        1 MOL1        -0.1985
     131    H1      18.535975   18.712585   24.203731 H          1 MOL1         0.0740
     132    H2      19.439242   17.333640   23.573143 H          1 MOL1         0.0740
     133    C3      20.442380   19.271903   23.299587 C.3        1 MOL1        -0.1882
     134    H3      20.551446   20.186542   23.895659 H          1 MOL1         0.0742
     135    H4      21.450827   18.854442   23.195613 H          1 MOL1         0.0742
     136    C4      19.887440   19.643561   21.903610 C.3        1 MOL1        -0.1880
     137    H5      20.518190   20.433205   21.479217 H          1 MOL1         0.0742
     138    H6      18.883464   20.070677   22.018091 H          1 MOL1         0.0742
     139    C5      19.837435   18.451460   20.918787 C.3        1 MOL1        -0.1880
     140    H7      20.842711   18.033402   20.783445 H          1 MOL1         0.0742
     141    H8      19.224438   17.656158   21.357545 H          1 MOL1         0.0742
     142    C6      19.232563   18.824195   19.545419 C.3        1 MOL1        -0.1856
     143    H9      18.255013   19.291724   19.702501 H          1 MOL1         0.0742
     144    H10     19.045203   17.909944   18.969421 H          1 MOL1         0.0742
     145    C7      20.131730   19.750600   18.701014 C.3        1 MOL1        -0.2871
     146    H11     20.326827   20.700111   19.211539 H          1 MOL1         0.0754
     147    H12     19.652624   19.978344   17.740498 H          1 MOL1         0.0754
     148    H13     21.091199   19.264209   18.489693 H          1 MOL1         0.0754
@<TRIPOS>BOND
    1     1     2    1
    2     1     3    1
    3     1     4    1
    4     4     5    1
    5     4     6    1
    6     6     7    1
    7     4     8    1
    8     8     9    1
    9     8    10    1
   10    10    11    1
   11     8    12    1
   12    12    13    1
   13    12    14    1
   14    14    15    1
   15     1    16    1
   16    14    16    1
   17    14    17    1
   18    17    18    1
   19    17    19    1
   20    17    20    1
   21    20    21    1
   22    22    23    1
   23    22    24    1
   24    22    25    1
   25    25    26    1
   26    25    27    1
   27    27    28    1
   28    25    29    1
   29    29    30    1
   30    29    31    1
   31    31    32    1
   32     3    33    1
   33    29    33    1
   34    33    34    1
   35    33    35    1
   36    35    36    1
   37    22    37    1
   38    35    37    1
   39    35    38    1
   40    38    39    1
   41    38    40    1
   42    38    41    1
   43    41    42    1
   44    43    44    1
   45    43    45    1
   46    43    46    1
   47    46    47    1
   48    46    48    1
   49    48    49    1
   50    46    50    1
   51    50    51    1
   52    50    52    1
   53    52    53    1
   54    24    54    1
   55    50    54    1
   56    54    55    1
   57    54    56    1
   58    56    57    1
   59    43    58    1
   60    56    58    1
   61    56    59    1
   62    59    60    1
   63    59    61    1
   64    59    62    1
   65    62    63    1
   66    64    65    1
   67    64    66    1
   68    64    67    1
   69    67    68    1
   70    67    69    1
   71    69    70    1
   72    67    71    1
   73    71    72    1
   74    71    73    1
   75    73    74    1
   76    45    75    1
   77    71    75    1
   78    75    76    1
   79    75    77    1
   80    77    78    1
   81    64    79    1
   82    77    79    1
   83    77    80    1
   84    80    81    1
   85    80    82    1
   86    80    83    1
   87    83    84    1
   88    85    86    1
   89    85    87    1
   90    85    88    1
   91    88    89    1
   92    88    90    1
   93    90    91    1
   94    88    92    1
   95    92    93    1
   96    92    94    1
   97    94    95    1
   98    66    96    1
   99    92    96    1
  100    96    97    1
  101    96    98    1
  102    98    99    1
  103    85   100    1
  104    98   100    1
  105    98   101    1
  106   101   102    1
  107   101   103    1
  108   101   104    1
  109   104   105    1
  110   106   107    1
  111    12   108    1
  112   106   108    1
  113   106   109    1
  114   109   110    1
  115   109   111    1
  116   111   112    1
  117   109   113    1
  118   113   114    1
  119   113   115    1
  120   115   116    1
  121    87   117    1
  122   113   117    1
  123   117   118    1
  124   117   119    1
  125   119   120    1
  126   106   121    1
  127   119   121    1
  128   119   122    1
  129   122   123    1
  130   122   124    1
  131   122   125    1
  132   125   126    1
  133   127   128    1
  134   127   129    2
  135   127   130    1
  136   130   131    1
  137   130   132    1
  138   130   133    1
  139   133   134    1
  140   133   135    1
  141   133   136    1
  142   136   137    1
  143   136   138    1
  144   136   139    1
  145   139   140    1
  146   139   141    1
  147   139   142    1
  148   142   143    1
  149   142   144    1
  150   142   145    1
  151   145   146    1
  152   145   147    1
  153   145   148    1
@<TRIPOS>SUBSTRUCTURE
       1 MOL1            1 RESIDUE      1      MOL     
       2 MOL1          148 RESIDUE      1      MOL     
@<SCITEGIC>MOL_PROPERTY
feprocess Rank
SciTegic.value.IntegerValue
1

@<SCITEGIC>MOL_PROPERTY
Conf_Id
SciTegic.value.IntegerValue
5

@<SCITEGIC>MOL_PROPERTY
Probability
SciTegic.value.DoubleValue
36.94

@<SCITEGIC>MOL_PROPERTY
G
SciTegic.value.DoubleValue
506.792

@<SCITEGIC>MOL_PROPERTY
E
SciTegic.value.DoubleValue
313.859

@<SCITEGIC>MOL_PROPERTY
-TS
SciTegic.value.DoubleValue
192.933

@<SCITEGIC>MOL_PROPERTY
U+W
SciTegic.value.DoubleValue
183.299

@<SCITEGIC>MOL_PROPERTY
U
SciTegic.value.DoubleValue
265.999

@<SCITEGIC>MOL_PROPERTY
W
SciTegic.value.DoubleValue
-82.700

@<SCITEGIC>MOL_PROPERTY
W(PB)
SciTegic.value.DoubleValue
-88.789

@<SCITEGIC>MOL_PROPERTY
W(SA)
SciTegic.value.DoubleValue
6.089

@<SCITEGIC>MOL_PROPERTY
Valence
SciTegic.value.DoubleValue
153.052

@<SCITEGIC>MOL_PROPERTY
Coulomb
SciTegic.value.DoubleValue
139.855

@<SCITEGIC>MOL_PROPERTY
VdW
SciTegic.value.DoubleValue
-26.907

@<SCITEGIC>MOL_PROPERTY
VdW6
SciTegic.value.DoubleValue
-188.477

@<SCITEGIC>MOL_PROPERTY
VdW12
SciTegic.value.DoubleValue
161.570

@<SCITEGIC>MOL_PROPERTY
Bond
SciTegic.value.DoubleValue
4.922

@<SCITEGIC>MOL_PROPERTY
Angle
SciTegic.value.DoubleValue
14.255

@<SCITEGIC>MOL_PROPERTY
Pdih
SciTegic.value.DoubleValue
133.874

@<SCITEGIC>MOL_PROPERTY
Idih
SciTegic.value.DoubleValue
0.001

@<SCITEGIC>MOL_PROPERTY
Tether
SciTegic.value.DoubleValue
0.000

@<TRIPOS>MOLECULE
CD_guest-s21_fast_vm2_rndm.mol2 : feprocess host+ligand conformer 2
         148         153           2
SMALL
USER_CHARGES
 
@<TRIPOS>ATOM
       1    C1      16.060287   15.113160   20.953842 C.3        1 MOL1         0.2972
       2    H1      14.992955   14.936311   20.768823 H          1 MOL1         0.0751
       3    O1      16.322497   16.471185   21.351532 O.3        1 MOL1        -0.3740
       4    C2      16.588575   14.195162   22.082548 C.3        1 MOL1         0.1003
       5    H2      16.459257   13.157437   21.748522 H          1 MOL1         0.0783
       6    O2      15.848195   14.395820   23.297537 O.3        1 MOL1        -0.5519
       7    H3      15.762661   15.373763   23.432992 H          1 MOL1         0.3769
       8    C3      18.100520   14.435035   22.326481 C.3        1 MOL1         0.1053
       9    H4      18.223295   15.440395   22.753380 H          1 MOL1         0.0783
      10    O3      18.571839   13.451670   23.254046 O.3        1 MOL1        -0.5519
      11    H5      17.864387   13.389433   23.935788 H          1 MOL1         0.3769
      12    C4      18.913430   14.368964   21.002920 C.3        1 MOL1         0.1018
      13    H6      19.021296   13.319078   20.702650 H          1 MOL1         0.0783
      14    C5      18.238363   15.155769   19.845671 C.3        1 MOL1         0.1043
      15    H7      18.340036   16.227321   20.056098 H          1 MOL1         0.0783
      16    O4      16.830791   14.827181   19.768518 O.3        1 MOL1        -0.3740
      17    C6      18.883244   14.895702   18.460774 C.3        1 MOL1         0.0138
      18    H8      19.872820   15.370430   18.436854 H          1 MOL1         0.0794
      19    H9      18.269991   15.387880   17.694461 H          1 MOL1         0.0794
      20    O5      19.015307   13.500126   18.163504 O.3        1 MOL1        -0.5486
      21    H10     19.763247   13.155102   18.696593 H          1 MOL1         0.3769
      22    C7      14.740827   20.246874   21.654349 C.3        1 MOL1         0.2972
      23    H11     14.120137   21.149144   21.731155 H          1 MOL1         0.0751
      24    O6      16.137510   20.575808   21.533936 O.3        1 MOL1        -0.3740
      25    C8      14.559344   19.377309   22.920657 C.3        1 MOL1         0.1003
      26    H12     13.504968   19.075977   22.971193 H          1 MOL1         0.0783
      27    O7      14.897560   20.132018   24.094702 O.3        1 MOL1        -0.5519
      28    H13     15.507256   20.849939   23.799762 H          1 MOL1         0.3769
      29    C9      15.422256   18.098576   22.831038 C.3        1 MOL1         0.1053
      30    H14     16.476045   18.399489   22.870283 H          1 MOL1         0.0783
      31    O8      15.127842   17.240185   23.938054 O.3        1 MOL1        -0.5519
      32    H15     15.142562   17.829562   24.724882 H          1 MOL1         0.3769
      33    C10     15.187804   17.341793   21.501414 C.3        1 MOL1         0.1018
      34    H16     14.242626   16.787911   21.574739 H          1 MOL1         0.0783
      35    C11     15.172500   18.278044   20.260211 C.3        1 MOL1         0.1043
      36    H17     16.207980   18.584929   20.072996 H          1 MOL1         0.0783
      37    O9      14.365350   19.459708   20.504966 O.3        1 MOL1        -0.3740
      38    C12     14.657967   17.590811   18.973036 C.3        1 MOL1         0.0138
      39    H18     15.406229   16.856384   18.646139 H          1 MOL1         0.0794
      40    H19     14.575614   18.346078   18.179885 H          1 MOL1         0.0794
      41    O10     13.396619   16.941985   19.176892 O.3        1 MOL1        -0.5486
      42    H20     13.105892   16.577929   18.312456 H          1 MOL1         0.3769
      43    C13     18.645003   23.759241   20.569911 C.3        1 MOL1         0.2972
      44    H21     19.079642   24.685283   20.172344 H          1 MOL1         0.0751
      45    O11     19.658173   22.896014   21.124667 O.3        1 MOL1        -0.3740
      46    C14     17.575295   24.061074   21.655401 C.3        1 MOL1         0.1003
      47    H22     16.780998   24.643592   21.170863 H          1 MOL1         0.0783
      48    O12     18.114470   24.830108   22.740777 O.3        1 MOL1        -0.5519
      49    H23     18.843912   24.292823   23.142701 H          1 MOL1         0.3769
      50    C15     16.946448   22.745881   22.178076 C.3        1 MOL1         0.1053
      51    H24     17.725102   22.179601   22.705895 H          1 MOL1         0.0783
      52    O13     15.873758   23.046373   23.077048 O.3        1 MOL1        -0.5519
      53    H25     16.220909   23.754286   23.664084 H          1 MOL1         0.3769
      54    C16     16.425093   21.881273   21.003127 C.3        1 MOL1         0.1018
      55    H26     15.530054   22.361982   20.586825 H          1 MOL1         0.0783
      56    C17     17.482488   21.719582   19.876168 C.3        1 MOL1         0.1043
      57    H27     18.305675   21.107391   20.262941 H          1 MOL1         0.0783
      58    O14     17.985842   23.029073   19.511359 O.3        1 MOL1        -0.3740
      59    C18     16.963987   21.017432   18.593691 C.3        1 MOL1         0.0138
      60    H28     17.141914   19.940321   18.690444 H          1 MOL1         0.0794
      61    H29     17.567188   21.357906   17.741516 H          1 MOL1         0.0794
      62    O15     15.573472   21.252704   18.337116 O.3        1 MOL1        -0.5486
      63    H30     15.062563   20.753385   19.016203 H          1 MOL1         0.3769
      64    C19     23.623078   22.741645   22.302293 C.3        1 MOL1         0.2972
      65    H31     24.651380   22.949780   22.624377 H          1 MOL1         0.0751
      66    O16     23.436933   21.337635   22.032519 O.3        1 MOL1        -0.3740
      67    C20     22.630575   23.182278   23.407864 C.3        1 MOL1         0.1003
      68    H32     22.719800   24.271615   23.507885 H          1 MOL1         0.0783
      69    O17     22.967971   22.578668   24.666531 O.3        1 MOL1        -0.5519
      70    H33     22.240349   21.946400   24.901072 H          1 MOL1         0.3769
      71    C21     21.178864   22.863897   22.974735 C.3        1 MOL1         0.1053
      72    H34     21.089749   21.777173   22.851243 H          1 MOL1         0.0783
      73    O18     20.247073   23.313692   23.965774 O.3        1 MOL1        -0.5519
      74    H35     20.296932   22.635082   24.689666 H          1 MOL1         0.3769
      75    C22     20.863336   23.520324   21.609479 C.3        1 MOL1         0.1018
      76    H36     20.741314   24.602128   21.753380 H          1 MOL1         0.0783
      77    C23     21.971186   23.235626   20.556343 C.3        1 MOL1         0.1043
      78    H37     21.886592   22.176386   20.284667 H          1 MOL1         0.0783
      79    O19     23.296218   23.479227   21.103338 O.3        1 MOL1        -0.3740
      80    C24     21.817852   24.061519   19.256697 C.3        1 MOL1         0.0138
      81    H38     20.942692   23.688210   18.707658 H          1 MOL1         0.0794
      82    H39     22.698073   23.888590   18.623134 H          1 MOL1         0.0794
      83    O20     21.664339   25.460858   19.523535 O.3        1 MOL1        -0.5486
      84    H40     21.656362   25.930182   18.661010 H          1 MOL1         0.3769
      85    C25     25.080835   17.817017   20.730520 C.3        1 MOL1         0.2972
      86    H41     25.662959   16.983997   20.316314 H          1 MOL1         0.0751
      87    O21     23.709179   17.431317   20.971164 O.3        1 MOL1        -0.3740
      88    C26     25.729357   18.362513   22.028788 C.3        1 MOL1         0.1003
      89    H42     26.716509   18.753523   21.749745 H          1 MOL1         0.0783
      90    O22     25.905704   17.338689   23.019016 O.3        1 MOL1        -0.5519
      91    H43     24.997980   17.054835   23.295384 H          1 MOL1         0.3769
      92    C27     24.902955   19.538711   22.602126 C.3        1 MOL1         0.1053
      93    H44     23.949825   19.136722   22.972633 H          1 MOL1         0.0783
      94    O23     25.635480   20.128385   23.681032 O.3        1 MOL1        -0.5519
      95    H45     25.892466   19.379796   24.261980 H          1 MOL1         0.3769
      96    C28     24.583917   20.619138   21.532071 C.3        1 MOL1         0.1018
      97    H46     25.464778   21.265138   21.426737 H          1 MOL1         0.0783
      98    C29     24.197008   20.023801   20.143734 C.3        1 MOL1         0.1043
      99    H47     23.171443   19.650238   20.225851 H          1 MOL1         0.0783
     100    O24     25.073709   18.921095   19.803130 O.3        1 MOL1        -0.3740
     101    C30     24.213169   21.021700   18.954124 C.3        1 MOL1         0.0138
     102    H48     23.194175   21.388076   18.787908 H          1 MOL1         0.0794
     103    H49     24.492154   20.473024   18.044545 H          1 MOL1         0.0794
     104    O25     25.100934   22.129942   19.142067 O.3        1 MOL1        -0.5486
     105    H50     24.678225   22.728532   19.801984 H          1 MOL1         0.3769
     106    C31     21.252266   14.134338   21.696640 C.3        1 MOL1         0.2972
     107    H51     20.874951   13.131698   21.935315 H          1 MOL1         0.0751
     108    O26     20.197832   14.991363   21.216159 O.3        1 MOL1        -0.3740
     109    C32     21.907039   14.769632   22.951897 C.3        1 MOL1         0.1003
     110    H52     22.722214   14.101276   23.258360 H          1 MOL1         0.0783
     111    O27     20.976314   14.896539   24.038576 O.3        1 MOL1        -0.5519
     112    H53     20.175680   14.369662   23.800595 H          1 MOL1         0.3769
     113    C33     22.521238   16.149163   22.626484 C.3        1 MOL1         0.1053
     114    H54     21.700479   16.836666   22.385026 H          1 MOL1         0.0783
     115    O28     23.229283   16.613390   23.780328 O.3        1 MOL1        -0.5519
     116    H55     22.599548   16.475199   24.523675 H          1 MOL1         0.3769
     117    C34     23.465297   16.075508   21.401075 C.3        1 MOL1         0.1018
     118    H56     24.391162   15.564498   21.695984 H          1 MOL1         0.0783
     119    C35     22.806493   15.321137   20.212806 C.3        1 MOL1         0.1043
     120    H57     21.994309   15.946567   19.821661 H          1 MOL1         0.0783
     121    O29     22.259383   14.054752   20.664636 O.3        1 MOL1        -0.3740
     122    C36     23.778950   15.046364   19.041153 C.3        1 MOL1         0.0138
     123    H58     24.000734   16.000396   18.543786 H          1 MOL1         0.0794
     124    H59     23.270859   14.406347   18.307480 H          1 MOL1         0.0794
     125    O30     24.997581   14.432498   19.480399 O.3        1 MOL1        -0.5486
     126    H60     25.527217   14.217243   18.681992 H          1 MOL1         0.3769
     127    C1      20.578633   19.774166   25.360543 C.2        1 MOL1         0.6145
     128    O1      20.791644   20.971622   25.405797 O.co2      1 MOL1        -0.6735
     129    O2      20.346555   19.092578   26.339383 O.co2      1 MOL1        -0.6735
     130    C2      20.583491   19.096053   23.993668 C.3        1 MOL1        -0.1985
     131    H1      20.671412   18.015748   24.155164 H          1 MOL1         0.0740
     132    H2      21.482915   19.422542   23.460032 H          1 MOL1         0.0740
     133    C3      19.308640   19.399644   23.165790 C.3        1 MOL1        -0.1882
     134    H3      18.433466   19.120533   23.766531 H          1 MOL1         0.0742
     135    H4      19.228137   20.479046   22.991058 H          1 MOL1         0.0742
     136    C4      19.251093   18.649709   21.814920 C.3        1 MOL1        -0.1880
     137    H5      18.263689   18.818944   21.368881 H          1 MOL1         0.0742
     138    H6      19.329870   17.569024   21.991241 H          1 MOL1         0.0742
     139    C5      20.337570   19.097151   20.809947 C.3        1 MOL1        -0.1880
     140    H7      20.330736   20.190317   20.717287 H          1 MOL1         0.0742
     141    H8      21.327477   18.817629   21.188227 H          1 MOL1         0.0742
     142    C6      20.110944   18.453081   19.426310 C.3        1 MOL1        -0.1856
     143    H9      19.094158   18.674914   19.078704 H          1 MOL1         0.0742
     144    H10     20.187081   17.365681   19.523982 H          1 MOL1         0.0742
     145    C7      21.121922   18.930443   18.367152 C.3        1 MOL1        -0.2871
     146    H11     21.135949   20.025668   18.300739 H          1 MOL1         0.0754
     147    H12     20.856474   18.534260   17.378775 H          1 MOL1         0.0754
     148    H13     22.132278   18.576300   18.603980 H          1 MOL1         0.0754
@<TRIPOS>BOND
    1     1     2    1
    2     1     3    1
    3     1     4    1
    4     4     5    1
    5     4     6    1
    6     6     7    1
    7     4     8    1
    8     8     9    1
    9     8    10    1
   10    10    11    1
   11     8    12    1
   12    12    13    1
   13    12    14    1
   14    14    15    1
   15     1    16    1
   16    14    16    1
   17    14    17    1
   18    17    18    1
   19    17    19    1
   20    17    20    1
   21    20    21    1
   22    22    23    1
   23    22    24    1
   24    22    25    1
   25    25    26    1
   26    25    27    1
   27    27    28    1
   28    25    29    1
   29    29    30    1
   30    29    31    1
   31    31    32    1
   32     3    33    1
   33    29    33    1
   34    33    34    1
   35    33    35    1
   36    35    36    1
   37    22    37    1
   38    35    37    1
   39    35    38    1
   40    38    39    1
   41    38    40    1
   42    38    41    1
   43    41    42    1
   44    43    44    1
   45    43    45    1
   46    43    46    1
   47    46    47    1
   48    46    48    1
   49    48    49    1
   50    46    50    1
   51    50    51    1
   52    50    52    1
   53    52    53    1
   54    24    54    1
   55    50    54    1
   56    54    55    1
   57    54    56    1
   58    56    57    1
   59    43    58    1
   60    56    58    1
   61    56    59    1
   62    59    60    1
   63    59    61    1
   64    59    62    1
   65    62    63    1
   66    64    65    1
   67    64    66    1
   68    64    67    1
   69    67    68    1
   70    67    69    1
   71    69    70    1
   72    67    71    1
   73    71    72    1
   74    71    73    1
   75    73    74    1
   76    45    75    1
   77    71    75    1
   78    75    76    1
   79    75    77    1
   80    77    78    1
   81    64    79    1
   82    77    79    1
   83    77    80    1
   84    80    81    1
   85    80    82    1
   86    80    83    1
   87    83    84    1
   88    85    86    1
   89    85    87    1
   90    85    88    1
   91    88    89    1
   92    88    90    1
   93    90    91    1
   94    88    92    1
   95    92    93    1
   96    92    94    1
   97    94    95    1
   98    66    96    1
   99    92    96    1
  100    96    97    1
  101    96    98    1
  102    98    99    1
  103    85   100    1
  104    98   100    1
  105    98   101    1
  106   101   102    1
  107   101   103    1
  108   101   104    1
  109   104   105    1
  110   106   107    1
  111    12   108    1
  112   106   108    1
  113   106   109    1
  114   109   110    1
  115   109   111    1
  116   111   112    1
  117   109   113    1
  118   113   114    1
  119   113   115    1
  120   115   116    1
  121    87   117    1
  122   113   117    1
  123   117   118    1
  124   117   119    1
  125   119   120    1
  126   106   121    1
  127   119   121    1
  128   119   122    1
  129   122   123    1
  130   122   124    1
  131   122   125    1
  132   125   126    1
  133   127   128    1
  134   127   129    2
  135   127   130    1
  136   130   131    1
  137   130   132    1
  138   130   133    1
  139   133   134    1
  140   133   135    1
  141   133   136    1
  142   136   137    1
  143   136   138    1
  144   136   139    1
  145   139   140    1
  146   139   141    1
  147   139   142    1
  148   142   143    1
  149   142   144    1
  150   142   145    1
  151   145   146    1
  152   145   147    1
  153   145   148    1
@<TRIPOS>SUBSTRUCTURE
       1 MOL1            1 RESIDUE      1      MOL     
       2 MOL1          148 RESIDUE      1      MOL     
@<SCITEGIC>MOL_PROPERTY
feprocess Rank
SciTegic.value.IntegerValue
2

@<SCITEGIC>MOL_PROPERTY
Conf_Id
SciTegic.value.IntegerValue
232

@<SCITEGIC>MOL_PROPERTY
Probability
SciTegic.value.DoubleValue
13.65

@<SCITEGIC>MOL_PROPERTY
G
SciTegic.value.DoubleValue
507.385

@<SCITEGIC>MOL_PROPERTY
E
SciTegic.value.DoubleValue
314.407

@<SCITEGIC>MOL_PROPERTY
-TS
SciTegic.value.DoubleValue
192.978

@<SCITEGIC>MOL_PROPERTY
U+W
SciTegic.value.DoubleValue
183.848

@<SCITEGIC>MOL_PROPERTY
U
SciTegic.value.DoubleValue
263.886

@<SCITEGIC>MOL_PROPERTY
W
SciTegic.value.DoubleValue
-80.038

@<SCITEGIC>MOL_PROPERTY
W(PB)
SciTegic.value.DoubleValue
-86.127

@<SCITEGIC>MOL_PROPERTY
W(SA)
SciTegic.value.DoubleValue
6.089

@<SCITEGIC>MOL_PROPERTY
Valence
SciTegic.value.DoubleValue
154.139

@<SCITEGIC>MOL_PROPERTY
Coulomb
SciTegic.value.DoubleValue
137.243

@<SCITEGIC>MOL_PROPERTY
VdW
SciTegic.value.DoubleValue
-27.497

@<SCITEGIC>MOL_PROPERTY
VdW6
SciTegic.value.DoubleValue
-189.322

@<SCITEGIC>MOL_PROPERTY
VdW12
SciTegic.value.DoubleValue
161.825

@<SCITEGIC>MOL_PROPERTY
Bond
SciTegic.value.DoubleValue
4.909

@<SCITEGIC>MOL_PROPERTY
Angle
SciTegic.value.DoubleValue
14.424

@<SCITEGIC>MOL_PROPERTY
Pdih
SciTegic.value.DoubleValue
134.807

@<SCITEGIC>MOL_PROPERTY
Idih
SciTegic.value.DoubleValue
0.001

@<SCITEGIC>MOL_PROPERTY
Tether
SciTegic.value.DoubleValue
0.000

@<TRIPOS>MOLECULE
CD_guest-s21_fast_vm2_rndm.mol2 : feprocess host+ligand conformer 3
         148         153           2
SMALL
USER_CHARGES
 
@<TRIPOS>ATOM
       1    C1      16.345642   15.202946   20.720669 C.3        1 MOL1         0.2972
       2    H1      15.310938   15.059551   20.384042 H          1 MOL1         0.0751
       3    O1      16.638111   16.600115   20.936014 O.3        1 MOL1        -0.3740
       4    C2      16.632439   14.393686   22.016553 C.3        1 MOL1         0.1003
       5    H2      16.494756   13.333432   21.767585 H          1 MOL1         0.0783
       6    O2      15.731215   14.733599   23.079974 O.3        1 MOL1        -0.5519
       7    H3      15.888071   15.687748   23.295113 H          1 MOL1         0.3769
       8    C3      18.103235   14.585780   22.461014 C.3        1 MOL1         0.1053
       9    H4      18.243636   15.638230   22.743770 H          1 MOL1         0.0783
      10    O3      18.385594   13.740783   23.581934 O.3        1 MOL1        -0.5519
      11    H5      17.618858   13.851112   24.186899 H          1 MOL1         0.3769
      12    C4      19.073240   14.255796   21.299650 C.3        1 MOL1         0.1018
      13    H6      19.072216   13.168709   21.146765 H          1 MOL1         0.0783
      14    C5      18.668956   14.961744   19.975124 C.3        1 MOL1         0.1043
      15    H7      18.833041   16.038073   20.101174 H          1 MOL1         0.0783
      16    O4      17.262991   14.718346   19.713833 O.3        1 MOL1        -0.3740
      17    C6      19.483252   14.525451   18.728436 C.3        1 MOL1         0.0138
      18    H8      20.356374   15.181196   18.633480 H          1 MOL1         0.0794
      19    H9      18.867388   14.691613   17.834567 H          1 MOL1         0.0794
      20    O5      19.918473   13.161548   18.779463 O.3        1 MOL1        -0.5486
      21    H10     20.700683   13.133905   19.377949 H          1 MOL1         0.3769
      22    C7      14.939345   20.340699   21.551380 C.3        1 MOL1         0.2972
      23    H11     14.269437   21.183219   21.765678 H          1 MOL1         0.0751
      24    O6      16.195851   20.790622   21.006688 O.3        1 MOL1        -0.3740
      25    C8      15.198293   19.517870   22.840456 C.3        1 MOL1         0.1003
      26    H12     14.222922   19.149803   23.184456 H          1 MOL1         0.0783
      27    O7      15.788359   20.314139   23.880332 O.3        1 MOL1        -0.5519
      28    H13     15.694528   21.260421   23.614668 H          1 MOL1         0.3769
      29    C9      16.093284   18.292559   22.549115 C.3        1 MOL1         0.1053
      30    H14     17.092291   18.659528   22.279441 H          1 MOL1         0.0783
      31    O8      16.165659   17.493458   23.733768 O.3        1 MOL1        -0.5519
      32    H15     16.348953   18.140427   24.451905 H          1 MOL1         0.3769
      33    C10     15.554635   17.451173   21.365658 C.3        1 MOL1         0.1018
      34    H16     14.688026   16.871674   21.710209 H          1 MOL1         0.0783
      35    C11     15.151039   18.336484   20.151886 C.3        1 MOL1         0.1043
      36    H17     16.069190   18.724909   19.693063 H          1 MOL1         0.0783
      37    O9      14.332566   19.453299   20.587413 O.3        1 MOL1        -0.3740
      38    C12     14.383279   17.563077   19.053415 C.3        1 MOL1         0.0138
      39    H18     15.085890   16.883887   18.551717 H          1 MOL1         0.0794
      40    H19     14.030685   18.281425   18.301258 H          1 MOL1         0.0794
      41    O10     13.281509   16.816101   19.585141 O.3        1 MOL1        -0.5486
      42    H20     12.797910   16.419076   18.828188 H          1 MOL1         0.3769
      43    C13     18.515111   24.179133   20.657307 C.3        1 MOL1         0.2972
      44    H21     18.983530   25.149292   20.447296 H          1 MOL1         0.0751
      45    O11     19.487922   23.193415   21.065671 O.3        1 MOL1        -0.3740
      46    C14     17.409653   24.302597   21.737439 C.3        1 MOL1         0.1003
      47    H22     16.614836   24.927884   21.310006 H          1 MOL1         0.0783
      48    O12     17.888743   24.931773   22.934243 O.3        1 MOL1        -0.5519
      49    H23     18.611947   24.358361   23.293824 H          1 MOL1         0.3769
      50    C15     16.799772   22.912099   22.045875 C.3        1 MOL1         0.1053
      51    H24     17.577927   22.290735   22.511433 H          1 MOL1         0.0783
      52    O13     15.704004   23.081678   22.951843 O.3        1 MOL1        -0.5519
      53    H25     16.008495   23.764807   23.591983 H          1 MOL1         0.3769
      54    C16     16.323356   22.203968   20.745374 C.3        1 MOL1         0.1018
      55    H26     15.366763   22.640423   20.432001 H          1 MOL1         0.0783
      56    C17     17.342509   22.328093   19.576636 C.3        1 MOL1         0.1043
      57    H27     18.179545   21.654897   19.789118 H          1 MOL1         0.0783
      58    O14     17.855952   23.679789   19.474910 O.3        1 MOL1        -0.3740
      59    C18     16.765202   21.905200   18.203298 C.3        1 MOL1         0.0138
      60    H28     16.613815   20.817327   18.207668 H          1 MOL1         0.0794
      61    H29     17.513531   22.124804   17.430356 H          1 MOL1         0.0794
      62    O15     15.530766   22.563932   17.893368 O.3        1 MOL1        -0.5486
      63    H30     14.827732   22.144365   18.433897 H          1 MOL1         0.3769
      64    C19     23.323072   22.517354   22.402335 C.3        1 MOL1         0.2972
      65    H31     24.344788   22.566703   22.799625 H          1 MOL1         0.0751
      66    O16     23.032826   21.208908   21.870414 O.3        1 MOL1        -0.3740
      67    C20     22.309465   22.849186   23.526402 C.3        1 MOL1         0.1003
      68    H32     22.504063   23.880700   23.846843 H          1 MOL1         0.0783
      69    O17     22.512894   21.971192   24.645190 O.3        1 MOL1        -0.5519
      70    H33     21.629098   21.742330   25.029477 H          1 MOL1         0.3769
      71    C21     20.856254   22.791491   22.991434 C.3        1 MOL1         0.1053
      72    H34     20.625450   21.752161   22.726524 H          1 MOL1         0.0783
      73    O18     19.943446   23.255439   23.994154 O.3        1 MOL1        -0.5519
      74    H35     19.883536   22.537395   24.677683 H          1 MOL1         0.3769
      75    C22     20.688247   23.656757   21.715607 C.3        1 MOL1         0.1018
      76    H36     20.620278   24.713259   22.007134 H          1 MOL1         0.0783
      77    C23     21.839752   23.455148   20.690862 C.3        1 MOL1         0.1043
      78    H37     21.689725   22.472719   20.230841 H          1 MOL1         0.0783
      79    O19     23.138763   23.477452   21.338686 O.3        1 MOL1        -0.3740
      80    C24     21.838090   24.498559   19.548288 C.3        1 MOL1         0.0138
      81    H38     20.968044   24.308410   18.905182 H          1 MOL1         0.0794
      82    H39     22.736017   24.349468   18.933722 H          1 MOL1         0.0794
      83    O20     21.790634   25.841930   20.044714 O.3        1 MOL1        -0.5486
      84    H40     21.867644   26.447120   19.275097 H          1 MOL1         0.3769
      85    C25     24.879682   17.675543   20.751704 C.3        1 MOL1         0.2972
      86    H41     25.516035   16.884903   20.333699 H          1 MOL1         0.0751
      87    O21     23.630447   17.150037   21.240770 O.3        1 MOL1        -0.3740
      88    C26     25.591189   18.412930   21.913537 C.3        1 MOL1         0.1003
      89    H42     26.497183   18.870287   21.495062 H          1 MOL1         0.0783
      90    O22     25.971303   17.503963   22.958684 O.3        1 MOL1        -0.5519
      91    H43     25.151401   17.028275   23.247488 H          1 MOL1         0.3769
      92    C27     24.704787   19.553346   22.477678 C.3        1 MOL1         0.1053
      93    H44     23.848004   19.102845   22.998344 H          1 MOL1         0.0783
      94    O23     25.492097   20.318840   23.395717 O.3        1 MOL1        -0.5519
      95    H45     25.884313   19.662064   24.011357 H          1 MOL1         0.3769
      96    C28     24.157246   20.472405   21.349852 C.3        1 MOL1         0.1018
      97    H46     24.964937   21.142249   21.028752 H          1 MOL1         0.0783
      98    C29     23.629525   19.679816   20.120593 C.3        1 MOL1         0.1043
      99    H47     22.687506   19.193566   20.404918 H          1 MOL1         0.0783
     100    O24     24.589195   18.664264   19.740538 O.3        1 MOL1        -0.3740
     101    C30     23.324651   20.560182   18.879557 C.3        1 MOL1         0.0138
     102    H48     22.281983   20.894264   18.941323 H          1 MOL1         0.0794
     103    H49     23.399607   19.934682   17.980092 H          1 MOL1         0.0794
     104    O25     24.188094   21.698668   18.758757 O.3        1 MOL1        -0.5486
     105    H50     24.015529   22.281356   19.532499 H          1 MOL1         0.3769
     106    C31     21.404352   13.760202   21.847051 C.3        1 MOL1         0.2972
     107    H51     20.990626   12.755498   22.002180 H          1 MOL1         0.0751
     108    O26     20.366304   14.747265   21.692816 O.3        1 MOL1        -0.3740
     109    C32     22.262772   14.168294   23.065794 C.3        1 MOL1         0.1003
     110    H52     23.099704   13.461697   23.138913 H          1 MOL1         0.0783
     111    O27     21.478237   14.107861   24.267668 O.3        1 MOL1        -0.5519
     112    H53     20.543853   14.295956   24.006448 H          1 MOL1         0.3769
     113    C33     22.844172   15.586874   22.868004 C.3        1 MOL1         0.1053
     114    H54     22.007274   16.294298   22.886994 H          1 MOL1         0.0783
     115    O28     23.747559   15.882120   23.937741 O.3        1 MOL1        -0.5519
     116    H55     23.263743   15.624812   24.754179 H          1 MOL1         0.3769
     117    C34     23.564755   15.734740   21.503497 C.3        1 MOL1         0.1018
     118    H56     24.561346   15.279953   21.579477 H          1 MOL1         0.0783
     119    C35     22.769164   15.103598   20.324204 C.3        1 MOL1         0.1043
     120    H57     21.927069   15.770145   20.108632 H          1 MOL1         0.0783
     121    O29     22.246864   13.796067   20.676882 O.3        1 MOL1        -0.3740
     122    C36     23.590627   14.972514   19.019957 C.3        1 MOL1         0.0138
     123    H58     23.758151   15.978398   18.611390 H          1 MOL1         0.0794
     124    H59     22.994141   14.416943   18.283881 H          1 MOL1         0.0794
     125    O30     24.847581   14.320098   19.238030 O.3        1 MOL1        -0.5486
     126    H60     25.278682   14.203220   18.363452 H          1 MOL1         0.3769
     127    C1      19.741428   19.853294   25.459412 C.2        1 MOL1         0.6145
     128    O1      20.059516   21.018118   25.611125 O.co2      1 MOL1        -0.6735
     129    O2      19.744855   19.029229   26.352367 O.co2      1 MOL1        -0.6735
     130    C2      19.334428   19.401619   24.061211 C.3        1 MOL1        -0.1985
     131    H1      18.852749   20.247557   23.559467 H          1 MOL1         0.0740
     132    H2      18.578875   18.619109   24.177934 H          1 MOL1         0.0740
     133    C3      20.522509   18.856868   23.226818 C.3        1 MOL1        -0.1882
     134    H3      21.296863   19.626599   23.125481 H          1 MOL1         0.0742
     135    H4      20.983543   18.038288   23.793546 H          1 MOL1         0.0742
     136    C4      20.110671   18.331994   21.829517 C.3        1 MOL1        -0.1880
     137    H5      19.300456   17.600880   21.941971 H          1 MOL1         0.0742
     138    H6      20.961072   17.788679   21.403471 H          1 MOL1         0.0742
     139    C5      19.676067   19.447685   20.847277 C.3        1 MOL1        -0.1880
     140    H7      18.860390   20.024027   21.298952 H          1 MOL1         0.0742
     141    H8      20.502099   20.153387   20.693130 H          1 MOL1         0.0742
     142    C6      19.184669   18.903138   19.483727 C.3        1 MOL1        -0.1856
     143    H9      18.755361   19.723709   18.898467 H          1 MOL1         0.0742
     144    H10     18.368504   18.190975   19.651023 H          1 MOL1         0.0742
     145    C7      20.288865   18.238173   18.636603 C.3        1 MOL1        -0.2871
     146    H11     21.059317   18.964680   18.359879 H          1 MOL1         0.0754
     147    H12     19.866510   17.829968   17.709704 H          1 MOL1         0.0754
     148    H13     20.770818   17.418501   19.176229 H          1 MOL1         0.0754
@<TRIPOS>BOND
    1     1     2    1
    2     1     3    1
    3     1     4    1
    4     4     5    1
    5     4     6    1
    6     6     7    1
    7     4     8    1
    8     8     9    1
    9     8    10    1
   10    10    11    1
   11     8    12    1
   12    12    13    1
   13    12    14    1
   14    14    15    1
   15     1    16    1
   16    14    16    1
   17    14    17    1
   18    17    18    1
   19    17    19    1
   20    17    20    1
   21    20    21    1
   22    22    23    1
   23    22    24    1
   24    22    25    1
   25    25    26    1
   26    25    27    1
   27    27    28    1
   28    25    29    1
   29    29    30    1
   30    29    31    1
   31    31    32    1
   32     3    33    1
   33    29    33    1
   34    33    34    1
   35    33    35    1
   36    35    36    1
   37    22    37    1
   38    35    37    1
   39    35    38    1
   40    38    39    1
   41    38    40    1
   42    38    41    1
   43    41    42    1
   44    43    44    1
   45    43    45    1
   46    43    46    1
   47    46    47    1
   48    46    48    1
   49    48    49    1
   50    46    50    1
   51    50    51    1
   52    50    52    1
   53    52    53    1
   54    24    54    1
   55    50    54    1
   56    54    55    1
   57    54    56    1
   58    56    57    1
   59    43    58    1
   60    56    58    1
   61    56    59    1
   62    59    60    1
   63    59    61    1
   64    59    62    1
   65    62    63    1
   66    64    65    1
   67    64    66    1
   68    64    67    1
   69    67    68    1
   70    67    69    1
   71    69    70    1
   72    67    71    1
   73    71    72    1
   74    71    73    1
   75    73    74    1
   76    45    75    1
   77    71    75    1
   78    75    76    1
   79    75    77    1
   80    77    78    1
   81    64    79    1
   82    77    79    1
   83    77    80    1
   84    80    81    1
   85    80    82    1
   86    80    83    1
   87    83    84    1
   88    85    86    1
   89    85    87    1
   90    85    88    1
   91    88    89    1
   92    88    90    1
   93    90    91    1
   94    88    92    1
   95    92    93    1
   96    92    94    1
   97    94    95    1
   98    66    96    1
   99    92    96    1
  100    96    97    1
  101    96    98    1
  102    98    99    1
  103    85   100    1
  104    98   100    1
  105    98   101    1
  106   101   102    1
  107   101   103    1
  108   101   104    1
  109   104   105    1
  110   106   107    1
  111    12   108    1
  112   106   108    1
  113   106   109    1
  114   109   110    1
  115   109   111    1
  116   111   112    1
  117   109   113    1
  118   113   114    1
  119   113   115    1
  120   115   116    1
  121    87   117    1
  122   113   117    1
  123   117   118    1
  124   117   119    1
  125   119   120    1
  126   106   121    1
  127   119   121    1
  128   119   122    1
  129   122   123    1
  130   122   124    1
  131   122   125    1
  132   125   126    1
  133   127   128    1
  134   127   129    2
  135   127   130    1
  136   130   131    1
  137   130   132    1
  138   130   133    1
  139   133   134    1
  140   133   135    1
  141   133   136    1
  142   136   137    1
  143   136   138    1
  144   136   139    1
  145   139   140    1
  146   139   141    1
  147   139   142    1
  148   142   143    1
  149   142   144    1
  150   142   145    1
  151   145   146    1
  152   145   147    1
  153   145   148    1
@<TRIPOS>SUBSTRUCTURE
       1 MOL1            1 RESIDUE      1      MOL     
       2 MOL1          148 RESIDUE      1      MOL     
@<SCITEGIC>MOL_PROPERTY
feprocess Rank
SciTegic.value.IntegerValue
3

@<SCITEGIC>MOL_PROPERTY
Conf_Id
SciTegic.value.IntegerValue
646

@<SCITEGIC>MOL_PROPERTY
Probability
SciTegic.value.DoubleValue
8.19

@<SCITEGIC>MOL_PROPERTY
G
SciTegic.value.DoubleValue
507.690

@<SCITEGIC>MOL_PROPERTY
E
SciTegic.value.DoubleValue
313.656

@<SCITEGIC>MOL_PROPERTY
-TS
SciTegic.value.DoubleValue
194.034

@<SCITEGIC>MOL_PROPERTY
U+W
SciTegic.value.DoubleValue
183.097

@<SCITEGIC>MOL_PROPERTY
U
SciTegic.value.DoubleValue
263.256

@<SCITEGIC>MOL_PROPERTY
W
SciTegic.value.DoubleValue
-80.159

@<SCITEGIC>MOL_PROPERTY
W(PB)
SciTegic.value.DoubleValue
-86.216

@<SCITEGIC>MOL_PROPERTY
W(SA)
SciTegic.value.DoubleValue
6.057

@<SCITEGIC>MOL_PROPERTY
Valence
SciTegic.value.DoubleValue
153.010

@<SCITEGIC>MOL_PROPERTY
Coulomb
SciTegic.value.DoubleValue
137.081

@<SCITEGIC>MOL_PROPERTY
VdW
SciTegic.value.DoubleValue
-26.835

@<SCITEGIC>MOL_PROPERTY
VdW6
SciTegic.value.DoubleValue
-190.707

@<SCITEGIC>MOL_PROPERTY
VdW12
SciTegic.value.DoubleValue
163.872

@<SCITEGIC>MOL_PROPERTY
Bond
SciTegic.value.DoubleValue
5.037

@<SCITEGIC>MOL_PROPERTY
Angle
SciTegic.value.DoubleValue
14.994

@<SCITEGIC>MOL_PROPERTY
Pdih
SciTegic.value.DoubleValue
132.979

@<SCITEGIC>MOL_PROPERTY
Idih
SciTegic.value.DoubleValue
0.000

@<SCITEGIC>MOL_PROPERTY
Tether
SciTegic.value.DoubleValue
0.000

@<TRIPOS>MOLECULE
CD_guest-s21_fast_vm2_rndm.mol2 : feprocess host+ligand conformer 4
         148         153           2
SMALL
USER_CHARGES
 
@<TRIPOS>ATOM
       1    C1      16.346962   15.247071   20.589758 C.3        1 MOL1         0.2972
       2    H1      15.309128   15.133962   20.251424 H          1 MOL1         0.0751
       3    O1      16.667196   16.635254   20.833880 O.3        1 MOL1        -0.3740
       4    C2      16.619589   14.388788   21.858236 C.3        1 MOL1         0.1003
       5    H2      16.478815   13.339978   21.566117 H          1 MOL1         0.0783
       6    O2      15.713296   14.683693   22.930535 O.3        1 MOL1        -0.5519
       7    H3      15.920213   15.605209   23.229529 H          1 MOL1         0.3769
       8    C3      18.089144   14.554130   22.315556 C.3        1 MOL1         0.1053
       9    H4      18.244076   15.596617   22.625968 H          1 MOL1         0.0783
      10    O3      18.357757   13.674373   23.412746 O.3        1 MOL1        -0.5519
      11    H5      17.590670   13.777462   24.018772 H          1 MOL1         0.3769
      12    C4      19.056172   14.243273   21.148390 C.3        1 MOL1         0.1018
      13    H6      19.048801   13.159518   20.974312 H          1 MOL1         0.0783
      14    C5      18.664379   14.977464   19.836311 C.3        1 MOL1         0.1043
      15    H7      18.847860   16.049586   19.977371 H          1 MOL1         0.0783
      16    O4      17.253464   14.768088   19.568815 O.3        1 MOL1        -0.3740
      17    C6      19.482611   14.539383   18.592321 C.3        1 MOL1         0.0138
      18    H8      20.381833   15.164109   18.529429 H          1 MOL1         0.0794
      19    H9      18.888221   14.746886   17.692773 H          1 MOL1         0.0794
      20    O5      19.869807   13.160294   18.618325 O.3        1 MOL1        -0.5486
      21    H10     20.653636   13.095497   19.210157 H          1 MOL1         0.3769
      22    C7      15.069056   20.334319   21.863447 C.3        1 MOL1         0.2972
      23    H11     14.434121   21.162923   22.201727 H          1 MOL1         0.0751
      24    O6      16.279469   20.813445   21.246862 O.3        1 MOL1        -0.3740
      25    C8      15.421681   19.416298   23.061749 C.3        1 MOL1         0.1003
      26    H12     14.473139   19.008059   23.433043 H          1 MOL1         0.0783
      27    O7      16.040152   20.156226   24.127139 O.3        1 MOL1        -0.5519
      28    H13     17.008369   20.257983   23.923009 H          1 MOL1         0.3769
      29    C9      16.294333   18.221993   22.605755 C.3        1 MOL1         0.1053
      30    H14     17.262487   18.613201   22.268390 H          1 MOL1         0.0783
      31    O8      16.483634   17.318601   23.700525 O.3        1 MOL1        -0.5519
      32    H15     17.178579   17.743344   24.273886 H          1 MOL1         0.3769
      33    C10     15.642658   17.471516   21.415623 C.3        1 MOL1         0.1018
      34    H16     14.794791   16.883423   21.789987 H          1 MOL1         0.0783
      35    C11     15.151490   18.443498   20.305538 C.3        1 MOL1         0.1043
      36    H17     16.035979   18.859592   19.806616 H          1 MOL1         0.0783
      37    O9      14.376963   19.527023   20.885200 O.3        1 MOL1        -0.3740
      38    C12     14.295198   17.754358   19.216510 C.3        1 MOL1         0.0138
      39    H18     14.951667   17.111847   18.614135 H          1 MOL1         0.0794
      40    H19     13.891684   18.526590   18.547987 H          1 MOL1         0.0794
      41    O10     13.231645   16.973161   19.775943 O.3        1 MOL1        -0.5486
      42    H20     12.687836   16.633911   19.031945 H          1 MOL1         0.3769
      43    C13     18.456691   24.191698   20.528205 C.3        1 MOL1         0.2972
      44    H21     18.908026   25.149340   20.239020 H          1 MOL1         0.0751
      45    O11     19.462233   23.224420   20.896162 O.3        1 MOL1        -0.3740
      46    C14     17.435433   24.374824   21.680761 C.3        1 MOL1         0.1003
      47    H22     16.631305   25.011677   21.289683 H          1 MOL1         0.0783
      48    O12     18.019342   25.024568   22.820023 O.3        1 MOL1        -0.5519
      49    H23     18.690605   24.397486   23.190457 H          1 MOL1         0.3769
      50    C15     16.802794   23.019958   22.087659 C.3        1 MOL1         0.1053
      51    H24     17.570688   22.420590   22.595852 H          1 MOL1         0.0783
      52    O13     15.713258   23.280379   22.979084 O.3        1 MOL1        -0.5519
      53    H25     16.094741   23.812237   23.710282 H          1 MOL1         0.3769
      54    C16     16.297452   22.203564   20.864236 C.3        1 MOL1         0.1018
      55    H26     15.296727   22.557848   20.587836 H          1 MOL1         0.0783
      56    C17     17.229767   22.287866   19.622644 C.3        1 MOL1         0.1043
      57    H27     18.089431   21.635850   19.808335 H          1 MOL1         0.0783
      58    O14     17.711099   23.640229   19.423120 O.3        1 MOL1        -0.3740
      59    C18     16.573315   21.786402   18.312676 C.3        1 MOL1         0.0138
      60    H28     16.467378   20.695093   18.370814 H          1 MOL1         0.0794
      61    H29     17.256406   21.999563   17.479818 H          1 MOL1         0.0794
      62    O15     15.294911   22.384626   18.064503 O.3        1 MOL1        -0.5486
      63    H30     14.651635   21.975871   18.682349 H          1 MOL1         0.3769
      64    C19     23.311605   22.603213   22.199581 C.3        1 MOL1         0.2972
      65    H31     24.335929   22.662341   22.588985 H          1 MOL1         0.0751
      66    O16     23.044376   21.321638   21.595751 O.3        1 MOL1        -0.3740
      67    C20     22.290234   22.820454   23.343028 C.3        1 MOL1         0.1003
      68    H32     22.453268   23.828074   23.746063 H          1 MOL1         0.0783
      69    O17     22.503006   21.853935   24.386542 O.3        1 MOL1        -0.5519
      70    H33     23.316028   21.346630   24.151411 H          1 MOL1         0.3769
      71    C21     20.843968   22.752194   22.788377 C.3        1 MOL1         0.1053
      72    H34     20.664529   21.729684   22.438028 H          1 MOL1         0.0783
      73    O18     19.892724   23.069874   23.810302 O.3        1 MOL1        -0.5519
      74    H35     19.533755   22.185599   24.093531 H          1 MOL1         0.3769
      75    C22     20.646291   23.691545   21.571110 C.3        1 MOL1         0.1018
      76    H36     20.544401   24.725063   21.926680 H          1 MOL1         0.0783
      77    C23     21.805475   23.589106   20.539226 C.3        1 MOL1         0.1043
      78    H37     21.701947   22.630571   20.014618 H          1 MOL1         0.0783
      79    O19     23.093339   23.624378   21.204252 O.3        1 MOL1        -0.3740
      80    C24     21.775403   24.701296   19.463898 C.3        1 MOL1         0.0138
      81    H38     20.921788   24.517243   18.797591 H          1 MOL1         0.0794
      82    H39     22.686320   24.624669   18.855211 H          1 MOL1         0.0794
      83    O20     21.668835   26.009336   20.039799 O.3        1 MOL1        -0.5486
      84    H40     21.732831   26.662758   19.309389 H          1 MOL1         0.3769
      85    C25     24.949931   17.649187   21.048053 C.3        1 MOL1         0.2972
      86    H41     25.654804   16.850531   20.783251 H          1 MOL1         0.0751
      87    O21     23.651863   17.125604   21.389620 O.3        1 MOL1        -0.3740
      88    C26     25.466081   18.476532   22.254854 C.3        1 MOL1         0.1003
      89    H42     26.415182   18.936911   21.950864 H          1 MOL1         0.0783
      90    O22     25.700187   17.646608   23.402894 O.3        1 MOL1        -0.5519
      91    H43     24.885558   17.100699   23.546523 H          1 MOL1         0.3769
      92    C27     24.473939   19.616807   22.598096 C.3        1 MOL1         0.1053
      93    H44     23.531858   19.163826   22.935489 H          1 MOL1         0.0783
      94    O23     25.028188   20.420261   23.645167 O.3        1 MOL1        -0.5519
      95    H45     25.434867   19.776381   24.268758 H          1 MOL1         0.3769
      96    C28     24.179910   20.477058   21.339544 C.3        1 MOL1         0.1018
      97    H46     25.071045   21.068477   21.093176 H          1 MOL1         0.0783
      98    C29     23.796494   19.598471   20.118794 C.3        1 MOL1         0.1043
      99    H47     22.821967   19.135825   20.321474 H          1 MOL1         0.0783
     100    O24     24.788596   18.558549   19.936489 O.3        1 MOL1        -0.3740
     101    C30     23.653334   20.396316   18.797710 C.3        1 MOL1         0.0138
     102    H48     22.673472   20.891625   18.797713 H          1 MOL1         0.0794
     103    H49     23.654846   19.687491   17.959036 H          1 MOL1         0.0794
     104    O25     24.684294   21.375553   18.619472 O.3        1 MOL1        -0.5486
     105    H50     24.519364   22.092934   19.269482 H          1 MOL1         0.3769
     106    C31     21.373304   13.723837   21.727367 C.3        1 MOL1         0.2972
     107    H51     20.950711   12.714875   21.816581 H          1 MOL1         0.0751
     108    O26     20.351467   14.721526   21.544547 O.3        1 MOL1        -0.3740
     109    C32     22.157276   14.084140   23.010011 C.3        1 MOL1         0.1003
     110    H52     22.996463   13.381901   23.098069 H          1 MOL1         0.0783
     111    O27     21.314134   13.966553   24.167284 O.3        1 MOL1        -0.5519
     112    H53     20.385812   14.131106   23.866899 H          1 MOL1         0.3769
     113    C33     22.734432   15.513481   22.901185 C.3        1 MOL1         0.1053
     114    H54     21.891436   16.214652   22.885078 H          1 MOL1         0.0783
     115    O28     23.557547   15.777874   24.040855 O.3        1 MOL1        -0.5519
     116    H55     23.030936   15.461358   24.808867 H          1 MOL1         0.3769
     117    C34     23.547455   15.703587   21.595015 C.3        1 MOL1         0.1018
     118    H56     24.529751   15.229761   21.722402 H          1 MOL1         0.0783
     119    C35     22.827587   15.123671   20.342235 C.3        1 MOL1         0.1043
     120    H57     22.001550   15.800292   20.094673 H          1 MOL1         0.0783
     121    O29     22.284306   13.804175   20.611666 O.3        1 MOL1        -0.3740
     122    C36     23.735173   15.039553   19.092427 C.3        1 MOL1         0.0138
     123    H58     23.936980   16.060244   18.739782 H          1 MOL1         0.0794
     124    H59     23.186565   14.521255   18.294574 H          1 MOL1         0.0794
     125    O30     24.970294   14.366904   19.367611 O.3        1 MOL1        -0.5486
     126    H60     25.464167   14.293180   18.522061 H          1 MOL1         0.3769
     127    C1      19.301872   19.325125   24.014871 C.2        1 MOL1         0.6145
     128    O1      18.776646   18.496518   24.732621 O.co2      1 MOL1        -0.6735
     129    O2      18.858495   20.449162   23.865776 O.co2      1 MOL1        -0.6735
     130    C2      20.513551   18.886814   23.193768 C.3        1 MOL1        -0.1985
     131    H1      21.015396   18.098444   23.764910 H          1 MOL1         0.0740
     132    H2      21.218981   19.720027   23.136831 H          1 MOL1         0.0740
     133    C3      20.173327   18.360515   21.772552 C.3        1 MOL1        -0.1882
     134    H3      21.051028   17.842457   21.371716 H          1 MOL1         0.0742
     135    H4      19.374023   17.612056   21.847095 H          1 MOL1         0.0742
     136    C4      19.757339   19.487518   20.796926 C.3        1 MOL1        -0.1880
     137    H5      20.594434   20.182406   20.653689 H          1 MOL1         0.0742
     138    H6      18.949409   20.071780   21.254724 H          1 MOL1         0.0742
     139    C5      19.269255   18.972595   19.422045 C.3        1 MOL1        -0.1880
     140    H7      18.415665   18.299224   19.567893 H          1 MOL1         0.0742
     141    H8      18.896068   19.821522   18.837845 H          1 MOL1         0.0742
     142    C6      20.363278   18.262944   18.598192 C.3        1 MOL1        -0.1856
     143    H9      20.727572   17.383048   19.137809 H          1 MOL1         0.0742
     144    H10     21.219301   18.934218   18.466014 H          1 MOL1         0.0742
     145    C7      19.836229   17.836811   17.213928 C.3        1 MOL1        -0.2871
     146    H11     18.957267   17.187022   17.309907 H          1 MOL1         0.0754
     147    H12     20.607700   17.290788   16.656101 H          1 MOL1         0.0754
     148    H13     19.545846   18.713592   16.620768 H          1 MOL1         0.0754
@<TRIPOS>BOND
    1     1     2    1
    2     1     3    1
    3     1     4    1
    4     4     5    1
    5     4     6    1
    6     6     7    1
    7     4     8    1
    8     8     9    1
    9     8    10    1
   10    10    11    1
   11     8    12    1
   12    12    13    1
   13    12    14    1
   14    14    15    1
   15     1    16    1
   16    14    16    1
   17    14    17    1
   18    17    18    1
   19    17    19    1
   20    17    20    1
   21    20    21    1
   22    22    23    1
   23    22    24    1
   24    22    25    1
   25    25    26    1
   26    25    27    1
   27    27    28    1
   28    25    29    1
   29    29    30    1
   30    29    31    1
   31    31    32    1
   32     3    33    1
   33    29    33    1
   34    33    34    1
   35    33    35    1
   36    35    36    1
   37    22    37    1
   38    35    37    1
   39    35    38    1
   40    38    39    1
   41    38    40    1
   42    38    41    1
   43    41    42    1
   44    43    44    1
   45    43    45    1
   46    43    46    1
   47    46    47    1
   48    46    48    1
   49    48    49    1
   50    46    50    1
   51    50    51    1
   52    50    52    1
   53    52    53    1
   54    24    54    1
   55    50    54    1
   56    54    55    1
   57    54    56    1
   58    56    57    1
   59    43    58    1
   60    56    58    1
   61    56    59    1
   62    59    60    1
   63    59    61    1
   64    59    62    1
   65    62    63    1
   66    64    65    1
   67    64    66    1
   68    64    67    1
   69    67    68    1
   70    67    69    1
   71    69    70    1
   72    67    71    1
   73    71    72    1
   74    71    73    1
   75    73    74    1
   76    45    75    1
   77    71    75    1
   78    75    76    1
   79    75    77    1
   80    77    78    1
   81    64    79    1
   82    77    79    1
   83    77    80    1
   84    80    81    1
   85    80    82    1
   86    80    83    1
   87    83    84    1
   88    85    86    1
   89    85    87    1
   90    85    88    1
   91    88    89    1
   92    88    90    1
   93    90    91    1
   94    88    92    1
   95    92    93    1
   96    92    94    1
   97    94    95    1
   98    66    96    1
   99    92    96    1
  100    96    97    1
  101    96    98    1
  102    98    99    1
  103    85   100    1
  104    98   100    1
  105    98   101    1
  106   101   102    1
  107   101   103    1
  108   101   104    1
  109   104   105    1
  110   106   107    1
  111    12   108    1
  112   106   108    1
  113   106   109    1
  114   109   110    1
  115   109   111    1
  116   111   112    1
  117   109   113    1
  118   113   114    1
  119   113   115    1
  120   115   116    1
  121    87   117    1
  122   113   117    1
  123   117   118    1
  124   117   119    1
  125   119   120    1
  126   106   121    1
  127   119   121    1
  128   119   122    1
  129   122   123    1
  130   122   124    1
  131   122   125    1
  132   125   126    1
  133   127   128    1
  134   127   129    2
  135   127   130    1
  136   130   131    1
  137   130   132    1
  138   130   133    1
  139   133   134    1
  140   133   135    1
  141   133   136    1
  142   136   137    1
  143   136   138    1
  144   136   139    1
  145   139   140    1
  146   139   141    1
  147   139   142    1
  148   142   143    1
  149   142   144    1
  150   142   145    1
  151   145   146    1
  152   145   147    1
  153   145   148    1
@<TRIPOS>SUBSTRUCTURE
       1 MOL1            1 RESIDUE      1      MOL     
       2 MOL1          148 RESIDUE      1      MOL     
@<SCITEGIC>MOL_PROPERTY
feprocess Rank
SciTegic.value.IntegerValue
4

@<SCITEGIC>MOL_PROPERTY
Conf_Id
SciTegic.value.IntegerValue
791

@<SCITEGIC>MOL_PROPERTY
Probability
SciTegic.value.DoubleValue
6.61

@<SCITEGIC>MOL_PROPERTY
G
SciTegic.value.DoubleValue
507.817

@<SCITEGIC>MOL_PROPERTY
E
SciTegic.value.DoubleValue
312.807

@<SCITEGIC>MOL_PROPERTY
-TS
SciTegic.value.DoubleValue
195.010

@<SCITEGIC>MOL_PROPERTY
U+W
SciTegic.value.DoubleValue
182.247

@<SCITEGIC>MOL_PROPERTY
U
SciTegic.value.DoubleValue
254.776

@<SCITEGIC>MOL_PROPERTY
W
SciTegic.value.DoubleValue
-72.527

@<SCITEGIC>MOL_PROPERTY
W(PB)
SciTegic.value.DoubleValue
-78.533

@<SCITEGIC>MOL_PROPERTY
W(SA)
SciTegic.value.DoubleValue
6.006

@<SCITEGIC>MOL_PROPERTY
Valence
SciTegic.value.DoubleValue
153.587

@<SCITEGIC>MOL_PROPERTY
Coulomb
SciTegic.value.DoubleValue
128.949

@<SCITEGIC>MOL_PROPERTY
VdW
SciTegic.value.DoubleValue
-27.761

@<SCITEGIC>MOL_PROPERTY
VdW6
SciTegic.value.DoubleValue
-194.891

@<SCITEGIC>MOL_PROPERTY
VdW12
SciTegic.value.DoubleValue
167.130

@<SCITEGIC>MOL_PROPERTY
Bond
SciTegic.value.DoubleValue
5.226

@<SCITEGIC>MOL_PROPERTY
Angle
SciTegic.value.DoubleValue
15.215

@<SCITEGIC>MOL_PROPERTY
Pdih
SciTegic.value.DoubleValue
133.132

@<SCITEGIC>MOL_PROPERTY
Idih
SciTegic.value.DoubleValue
0.013

@<SCITEGIC>MOL_PROPERTY
Tether
SciTegic.value.DoubleValue
0.000

@<TRIPOS>MOLECULE
CD_guest-s21_fast_vm2_rndm.mol2 : feprocess host+ligand conformer 5
         148         153           2
SMALL
USER_CHARGES
 
@<TRIPOS>ATOM
       1    C1      16.147106   15.146169   20.733247 C.3        1 MOL1         0.2972
       2    H1      15.085236   15.016397   20.487462 H          1 MOL1         0.0751
       3    O1      16.451601   16.508075   21.096364 O.3        1 MOL1        -0.3740
       4    C2      16.572586   14.217928   21.898608 C.3        1 MOL1         0.1003
       5    H2      16.447996   13.184319   21.550228 H          1 MOL1         0.0783
       6    O2      15.754660   14.415116   23.061517 O.3        1 MOL1        -0.5519
       7    H3      15.790136   15.379673   23.288414 H          1 MOL1         0.3769
       8    C3      18.069589   14.426686   22.237880 C.3        1 MOL1         0.1053
       9    H4      18.193245   15.442104   22.640676 H          1 MOL1         0.0783
      10    O3      18.458712   13.461681   23.220645 O.3        1 MOL1        -0.5519
      11    H5      17.709574   13.435103   23.858751 H          1 MOL1         0.3769
      12    C4      18.957671   14.292151   20.970048 C.3        1 MOL1         0.1018
      13    H6      19.055039   13.229430   20.714882 H          1 MOL1         0.0783
      14    C5      18.381503   15.053495   19.742483 C.3        1 MOL1         0.1043
      15    H7      18.523098   16.128507   19.903599 H          1 MOL1         0.0783
      16    O4      16.964512   14.789719   19.598855 O.3        1 MOL1        -0.3740
      17    C6      19.091730   14.698134   18.413065 C.3        1 MOL1         0.0138
      18    H8      20.112533   15.100461   18.444334 H          1 MOL1         0.0794
      19    H9      18.566986   15.204894   17.592424 H          1 MOL1         0.0794
      20    O5      19.140627   13.286698   18.169353 O.3        1 MOL1        -0.5486
      21    H10     19.833220   12.909770   18.752954 H          1 MOL1         0.3769
      22    C7      14.814787   20.240427   21.714716 C.3        1 MOL1         0.2972
      23    H11     14.179816   21.119599   21.884966 H          1 MOL1         0.0751
      24    O6      16.178718   20.612967   21.443424 O.3        1 MOL1        -0.3740
      25    C8      14.809501   19.331100   22.966395 C.3        1 MOL1         0.1003
      26    H12     13.783955   18.967797   23.110593 H          1 MOL1         0.0783
      27    O7      15.203955   20.088766   24.120778 O.3        1 MOL1        -0.5519
      28    H13     15.661722   20.899103   23.792802 H          1 MOL1         0.3769
      29    C9      15.722811   18.098712   22.738527 C.3        1 MOL1         0.1053
      30    H14     16.756793   18.444839   22.631993 H          1 MOL1         0.0783
      31    O8      15.637509   17.199195   23.849334 O.3        1 MOL1        -0.5519
      32    H15     16.191740   17.610373   24.568287 H          1 MOL1         0.3769
      33    C10     15.338915   17.360038   21.430723 C.3        1 MOL1         0.1018
      34    H16     14.418269   16.788641   21.608675 H          1 MOL1         0.0783
      35    C11     15.149503   18.325718   20.224981 C.3        1 MOL1         0.1043
      36    H17     16.144872   18.677924   19.925898 H          1 MOL1         0.0783
      37    O9      14.335335   19.469568   20.593687 O.3        1 MOL1        -0.3740
      38    C12     14.513781   17.649660   18.986891 C.3        1 MOL1         0.0138
      39    H18     15.245692   16.952527   18.556663 H          1 MOL1         0.0794
      40    H19     14.313617   18.420149   18.230228 H          1 MOL1         0.0794
      41    O10     13.308510   16.947112   19.315188 O.3        1 MOL1        -0.5486
      42    H20     12.925535   16.605530   18.477904 H          1 MOL1         0.3769
      43    C13     18.559195   23.944320   20.723509 C.3        1 MOL1         0.2972
      44    H21     18.965188   24.912599   20.403483 H          1 MOL1         0.0751
      45    O11     19.599064   23.056308   21.184264 O.3        1 MOL1        -0.3740
      46    C14     17.516665   24.116806   21.861001 C.3        1 MOL1         0.1003
      47    H22     16.687241   24.709377   21.453525 H          1 MOL1         0.0783
      48    O12     18.067537   24.809345   22.990925 O.3        1 MOL1        -0.5519
      49    H23     18.862637   24.299215   23.289917 H          1 MOL1         0.3769
      50    C15     16.952710   22.737609   22.284288 C.3        1 MOL1         0.1053
      51    H24     17.772118   22.148445   22.718725 H          1 MOL1         0.0783
      52    O13     15.916933   22.917263   23.254885 O.3        1 MOL1        -0.5519
      53    H25     16.257475   23.606602   23.868125 H          1 MOL1         0.3769
      54    C16     16.403938   21.976046   21.051623 C.3        1 MOL1         0.1018
      55    H26     15.479199   22.463950   20.716808 H          1 MOL1         0.0783
      56    C17     17.420286   21.951166   19.877013 C.3        1 MOL1         0.1043
      57    H27     18.276490   21.333430   20.170977 H          1 MOL1         0.0783
      58    O14     17.882501   23.300098   19.618556 O.3        1 MOL1        -0.3740
      59    C18     16.863647   21.338081   18.565198 C.3        1 MOL1         0.0138
      60    H28     17.053021   20.257429   18.582756 H          1 MOL1         0.0794
      61    H29     17.431550   21.745903   17.718425 H          1 MOL1         0.0794
      62    O15     15.461457   21.570206   18.379133 O.3        1 MOL1        -0.5486
      63    H30     14.985491   21.016074   19.039379 H          1 MOL1         0.3769
      64    C19     23.617670   22.776855   22.071945 C.3        1 MOL1         0.2972
      65    H31     24.676722   22.934279   22.313875 H          1 MOL1         0.0751
      66    O16     23.331812   21.392705   21.802807 O.3        1 MOL1        -0.3740
      67    C20     22.734435   23.213846   23.263066 C.3        1 MOL1         0.1003
      68    H32     22.894053   24.288323   23.421656 H          1 MOL1         0.0783
      69    O17     23.106665   22.495814   24.450406 O.3        1 MOL1        -0.5519
      70    H33     23.508426   21.643421   24.153348 H          1 MOL1         0.3769
      71    C21     21.239208   22.991251   22.939239 C.3        1 MOL1         0.1053
      72    H34     21.069321   21.910098   22.860112 H          1 MOL1         0.0783
      73    O18     20.446888   23.523603   24.004573 O.3        1 MOL1        -0.5519
      74    H35     20.870532   23.184745   24.824896 H          1 MOL1         0.3769
      75    C22     20.847020   23.650860   21.590519 C.3        1 MOL1         0.1018
      76    H36     20.757944   24.734908   21.741467 H          1 MOL1         0.0783
      77    C23     21.868609   23.347991   20.456313 C.3        1 MOL1         0.1043
      78    H37     21.738829   22.296725   20.169408 H          1 MOL1         0.0783
      79    O19     23.231765   23.547384   20.914952 O.3        1 MOL1        -0.3740
      80    C24     21.649900   24.198904   19.182789 C.3        1 MOL1         0.0138
      81    H38     20.725810   23.862146   18.693486 H          1 MOL1         0.0794
      82    H39     22.476662   24.006611   18.485811 H          1 MOL1         0.0794
      83    O20     21.561343   25.598378   19.478096 O.3        1 MOL1        -0.5486
      84    H40     21.500028   26.079846   18.624397 H          1 MOL1         0.3769
      85    C25     25.056082   17.751171   20.867363 C.3        1 MOL1         0.2972
      86    H41     25.700082   16.922787   20.545502 H          1 MOL1         0.0751
      87    O21     23.692677   17.314090   21.062180 O.3        1 MOL1        -0.3740
      88    C26     25.591330   18.412042   22.167654 C.3        1 MOL1         0.1003
      89    H42     26.570985   18.845147   21.927144 H          1 MOL1         0.0783
      90    O22     25.760237   17.463926   23.230851 O.3        1 MOL1        -0.5519
      91    H43     24.857517   17.124736   23.456151 H          1 MOL1         0.3769
      92    C27     24.656673   19.567966   22.600894 C.3        1 MOL1         0.1053
      93    H44     23.677560   19.141807   22.861811 H          1 MOL1         0.0783
      94    O23     25.208941   20.242437   23.736493 O.3        1 MOL1        -0.5519
      95    H45     25.510530   19.527109   24.339516 H          1 MOL1         0.3769
      96    C28     24.455175   20.573676   21.440263 C.3        1 MOL1         0.1018
      97    H46     25.376551   21.158434   21.320528 H          1 MOL1         0.0783
      98    C29     24.110259   19.875364   20.095523 C.3        1 MOL1         0.1043
      99    H47     23.099834   19.467185   20.182190 H          1 MOL1         0.0783
     100    O24     25.041362   18.788306   19.858537 O.3        1 MOL1        -0.3740
     101    C30     24.093464   20.809937   18.857351 C.3        1 MOL1         0.0138
     102    H48     23.070247   21.181141   18.718703 H          1 MOL1         0.0794
     103    H49     24.334680   20.214180   17.966945 H          1 MOL1         0.0794
     104    O25     24.993079   21.919883   18.966088 O.3        1 MOL1        -0.5486
     105    H50     24.581560   22.563951   19.588186 H          1 MOL1         0.3769
     106    C31     21.260472   14.014752   21.771968 C.3        1 MOL1         0.2972
     107    H51     20.858949   13.020515   22.006519 H          1 MOL1         0.0751
     108    O26     20.240622   14.887909   21.247571 O.3        1 MOL1        -0.3740
     109    C32     21.879065   14.656539   23.040594 C.3        1 MOL1         0.1003
     110    H52     22.695076   13.999591   23.368760 H          1 MOL1         0.0783
     111    O27     20.919804   14.773954   24.103205 O.3        1 MOL1        -0.5519
     112    H53     20.080842   14.357062   23.789393 H          1 MOL1         0.3769
     113    C33     22.483679   16.041413   22.718137 C.3        1 MOL1         0.1053
     114    H54     21.659219   16.710040   22.442828 H          1 MOL1         0.0783
     115    O28     23.137802   16.537398   23.889308 O.3        1 MOL1        -0.5519
     116    H55     22.484611   16.393232   24.611378 H          1 MOL1         0.3769
     117    C34     23.471198   15.965246   21.523801 C.3        1 MOL1         0.1018
     118    H56     24.401042   15.487701   21.859734 H          1 MOL1         0.0783
     119    C35     22.869930   15.174110   20.327416 C.3        1 MOL1         0.1043
     120    H57     22.072606   15.785946   19.884739 H          1 MOL1         0.0783
     121    O29     22.306523   13.915170   20.781545 O.3        1 MOL1        -0.3740
     122    C36     23.895596   14.879356   19.207175 C.3        1 MOL1         0.0138
     123    H58     24.133393   15.823187   18.697837 H          1 MOL1         0.0794
     124    H59     23.425270   14.218450   18.466868 H          1 MOL1         0.0794
     125    O30     25.097157   14.285402   19.715273 O.3        1 MOL1        -0.5486
     126    H60     25.665211   14.058654   18.946972 H          1 MOL1         0.3769
     127    C1      18.627501   18.918848   25.495407 C.2        1 MOL1         0.6145
     128    O1      19.390243   19.127624   26.418543 O.co2      1 MOL1        -0.6735
     129    O2      17.675341   18.164084   25.557632 O.co2      1 MOL1        -0.6735
     130    C2      18.880306   19.640573   24.175645 C.3        1 MOL1        -0.1985
     131    H1      19.465934   20.545387   24.376464 H          1 MOL1         0.0740
     132    H2      17.911029   19.970424   23.791563 H          1 MOL1         0.0740
     133    C3      19.606155   18.755872   23.131650 C.3        1 MOL1        -0.1882
     134    H3      20.652248   18.625571   23.439909 H          1 MOL1         0.0742
     135    H4      19.151171   17.755618   23.116070 H          1 MOL1         0.0742
     136    C4      19.536931   19.366406   21.716788 C.3        1 MOL1        -0.1880
     137    H5      19.905100   20.398119   21.739151 H          1 MOL1         0.0742
     138    H6      18.491108   19.401279   21.391965 H          1 MOL1         0.0742
     139    C5      20.353749   18.554383   20.696791 C.3        1 MOL1        -0.1880
     140    H7      21.393467   18.511649   21.033038 H          1 MOL1         0.0742
     141    H8      19.989498   17.522398   20.676421 H          1 MOL1         0.0742
     142    C6      20.284805   19.166178   19.282620 C.3        1 MOL1        -0.1856
     143    H9      20.684093   20.188905   19.304723 H          1 MOL1         0.0742
     144    H10     19.236966   19.238543   18.963988 H          1 MOL1         0.0742
     145    C7      21.068427   18.325064   18.255015 C.3        1 MOL1        -0.2871
     146    H11     22.116196   18.199953   18.554587 H          1 MOL1         0.0754
     147    H12     21.051227   18.805965   17.268736 H          1 MOL1         0.0754
     148    H13     20.625002   17.328492   18.151462 H          1 MOL1         0.0754
@<TRIPOS>BOND
    1     1     2    1
    2     1     3    1
    3     1     4    1
    4     4     5    1
    5     4     6    1
    6     6     7    1
    7     4     8    1
    8     8     9    1
    9     8    10    1
   10    10    11    1
   11     8    12    1
   12    12    13    1
   13    12    14    1
   14    14    15    1
   15     1    16    1
   16    14    16    1
   17    14    17    1
   18    17    18    1
   19    17    19    1
   20    17    20    1
   21    20    21    1
   22    22    23    1
   23    22    24    1
   24    22    25    1
   25    25    26    1
   26    25    27    1
   27    27    28    1
   28    25    29    1
   29    29    30    1
   30    29    31    1
   31    31    32    1
   32     3    33    1
   33    29    33    1
   34    33    34    1
   35    33    35    1
   36    35    36    1
   37    22    37    1
   38    35    37    1
   39    35    38    1
   40    38    39    1
   41    38    40    1
   42    38    41    1
   43    41    42    1
   44    43    44    1
   45    43    45    1
   46    43    46    1
   47    46    47    1
   48    46    48    1
   49    48    49    1
   50    46    50    1
   51    50    51    1
   52    50    52    1
   53    52    53    1
   54    24    54    1
   55    50    54    1
   56    54    55    1
   57    54    56    1
   58    56    57    1
   59    43    58    1
   60    56    58    1
   61    56    59    1
   62    59    60    1
   63    59    61    1
   64    59    62    1
   65    62    63    1
   66    64    65    1
   67    64    66    1
   68    64    67    1
   69    67    68    1
   70    67    69    1
   71    69    70    1
   72    67    71    1
   73    71    72    1
   74    71    73    1
   75    73    74    1
   76    45    75    1
   77    71    75    1
   78    75    76    1
   79    75    77    1
   80    77    78    1
   81    64    79    1
   82    77    79    1
   83    77    80    1
   84    80    81    1
   85    80    82    1
   86    80    83    1
   87    83    84    1
   88    85    86    1
   89    85    87    1
   90    85    88    1
   91    88    89    1
   92    88    90    1
   93    90    91    1
   94    88    92    1
   95    92    93    1
   96    92    94    1
   97    94    95    1
   98    66    96    1
   99    92    96    1
  100    96    97    1
  101    96    98    1
  102    98    99    1
  103    85   100    1
  104    98   100    1
  105    98   101    1
  106   101   102    1
  107   101   103    1
  108   101   104    1
  109   104   105    1
  110   106   107    1
  111    12   108    1
  112   106   108    1
  113   106   109    1
  114   109   110    1
  115   109   111    1
  116   111   112    1
  117   109   113    1
  118   113   114    1
  119   113   115    1
  120   115   116    1
  121    87   117    1
  122   113   117    1
  123   117   118    1
  124   117   119    1
  125   119   120    1
  126   106   121    1
  127   119   121    1
  128   119   122    1
  129   122   123    1
  130   122   124    1
  131   122   125    1
  132   125   126    1
  133   127   128    1
  134   127   129    2
  135   127   130    1
  136   130   131    1
  137   130   132    1
  138   130   133    1
  139   133   134    1
  140   133   135    1
  141   133   136    1
  142   136   137    1
  143   136   138    1
  144   136   139    1
  145   139   140    1
  146   139   141    1
  147   139   142    1
  148   142   143    1
  149   142   144    1
  150   142   145    1
  151   145   146    1
  152   145   147    1
  153   145   148    1
@<TRIPOS>SUBSTRUCTURE
       1 MOL1            1 RESIDUE      1      MOL     
       2 MOL1          148 RESIDUE      1      MOL     
@<SCITEGIC>MOL_PROPERTY
feprocess Rank
SciTegic.value.IntegerValue
5

@<SCITEGIC>MOL_PROPERTY
Conf_Id
SciTegic.value.IntegerValue
961

@<SCITEGIC>MOL_PROPERTY
Probability
SciTegic.value.DoubleValue
4.23

@<SCITEGIC>MOL_PROPERTY
G
SciTegic.value.DoubleValue
508.084

@<SCITEGIC>MOL_PROPERTY
E
SciTegic.value.DoubleValue
316.541

@<SCITEGIC>MOL_PROPERTY
-TS
SciTegic.value.DoubleValue
191.543

@<SCITEGIC>MOL_PROPERTY
U+W
SciTegic.value.DoubleValue
185.982

@<SCITEGIC>MOL_PROPERTY
U
SciTegic.value.DoubleValue
270.746

@<SCITEGIC>MOL_PROPERTY
W
SciTegic.value.DoubleValue
-84.767

@<SCITEGIC>MOL_PROPERTY
W(PB)
SciTegic.value.DoubleValue
-90.852

@<SCITEGIC>MOL_PROPERTY
W(SA)
SciTegic.value.DoubleValue
6.085

@<SCITEGIC>MOL_PROPERTY
Valence
SciTegic.value.DoubleValue
153.793

@<SCITEGIC>MOL_PROPERTY
Coulomb
SciTegic.value.DoubleValue
143.596

@<SCITEGIC>MOL_PROPERTY
VdW
SciTegic.value.DoubleValue
-26.644

@<SCITEGIC>MOL_PROPERTY
VdW6
SciTegic.value.DoubleValue
-184.505

@<SCITEGIC>MOL_PROPERTY
VdW12
SciTegic.value.DoubleValue
157.861

@<SCITEGIC>MOL_PROPERTY
Bond
SciTegic.value.DoubleValue
4.879

@<SCITEGIC>MOL_PROPERTY
Angle
SciTegic.value.DoubleValue
13.660

@<SCITEGIC>MOL_PROPERTY
Pdih
SciTegic.value.DoubleValue
135.255

@<SCITEGIC>MOL_PROPERTY
Idih
SciTegic.value.DoubleValue
0.000

@<SCITEGIC>MOL_PROPERTY
Tether
SciTegic.value.DoubleValue
0.000

@<TRIPOS>MOLECULE
CD_guest-s21_fast_vm2_rndm.mol2 : feprocess host+ligand conformer 6
         148         153           2
SMALL
USER_CHARGES
 
@<TRIPOS>ATOM
       1    C1      16.271704   15.102327   20.382985 C.3        1 MOL1         0.2972
       2    H1      15.268987   15.008145   19.946984 H          1 MOL1         0.0751
       3    O1      16.576588   16.478009   20.705299 O.3        1 MOL1        -0.3740
       4    C2      16.424675   14.200642   21.636399 C.3        1 MOL1         0.1003
       5    H2      16.301486   13.164276   21.295835 H          1 MOL1         0.0783
       6    O2      15.427337   14.476481   22.631109 O.3        1 MOL1        -0.5519
       7    H3      15.617994   15.384948   22.976322 H          1 MOL1         0.3769
       8    C3      17.843475   14.329644   22.241730 C.3        1 MOL1         0.1053
       9    H4      17.937590   15.330417   22.685482 H          1 MOL1         0.0783
      10    O3      18.000110   13.329328   23.253296 O.3        1 MOL1        -0.5519
      11    H5      17.222831   13.430049   23.844172 H          1 MOL1         0.3769
      12    C4      18.960785   14.173820   21.174804 C.3        1 MOL1         0.1018
      13    H6      19.117068   13.102527   20.994946 H          1 MOL1         0.0783
      14    C5      18.642088   14.885758   19.826963 C.3        1 MOL1         0.1043
      15    H7      18.776623   15.958984   19.983319 H          1 MOL1         0.0783
      16    O4      17.266059   14.641575   19.442195 O.3        1 MOL1        -0.3740
      17    C6      19.566378   14.503048   18.639875 C.3        1 MOL1         0.0138
      18    H8      20.369126   15.247121   18.570501 H          1 MOL1         0.0794
      19    H9      18.989277   14.582513   17.708916 H          1 MOL1         0.0794
      20    O5      20.134381   13.192142   18.751126 O.3        1 MOL1        -0.5486
      21    H10     20.801490   13.225032   19.476502 H          1 MOL1         0.3769
      22    C7      14.977860   20.179939   21.662359 C.3        1 MOL1         0.2972
      23    H11     14.335736   21.022097   21.950199 H          1 MOL1         0.0751
      24    O6      16.257089   20.632027   21.175647 O.3        1 MOL1        -0.3740
      25    C8      15.198606   19.235529   22.871507 C.3        1 MOL1         0.1003
      26    H12     14.210436   18.864000   23.172546 H          1 MOL1         0.0783
      27    O7      15.798297   19.920927   23.982427 O.3        1 MOL1        -0.5519
      28    H13     15.760300   20.887301   23.782783 H          1 MOL1         0.3769
      29    C9      16.065025   18.019751   22.473355 C.3        1 MOL1         0.1053
      30    H14     17.075812   18.383671   22.245049 H          1 MOL1         0.0783
      31    O8      16.110911   17.114047   23.580509 O.3        1 MOL1        -0.5519
      32    H15     16.318371   17.686252   24.353486 H          1 MOL1         0.3769
      33    C10     15.510435   17.307090   21.213002 C.3        1 MOL1         0.1018
      34    H16     14.628891   16.718403   21.497734 H          1 MOL1         0.0783
      35    C11     15.129431   18.307364   20.084057 C.3        1 MOL1         0.1043
      36    H17     16.056640   18.704179   19.654335 H          1 MOL1         0.0783
      37    O9      14.348761   19.408158   20.617125 O.3        1 MOL1        -0.3740
      38    C12     14.335173   17.656895   18.926316 C.3        1 MOL1         0.0138
      39    H18     15.014966   17.002988   18.363483 H          1 MOL1         0.0794
      40    H19     14.003241   18.448752   18.241548 H          1 MOL1         0.0794
      41    O10     13.211992   16.900594   19.396148 O.3        1 MOL1        -0.5486
      42    H20     12.714380   16.586314   18.609947 H          1 MOL1         0.3769
      43    C13     18.512764   24.130599   21.040775 C.3        1 MOL1         0.2972
      44    H21     18.893132   25.146402   20.873107 H          1 MOL1         0.0751
      45    O11     19.553073   23.228882   21.462307 O.3        1 MOL1        -0.3740
      46    C14     17.415791   24.121678   22.134387 C.3        1 MOL1         0.1003
      47    H22     16.592942   24.753839   21.775982 H          1 MOL1         0.0783
      48    O12     17.912211   24.656231   23.371897 O.3        1 MOL1        -0.5519
      49    H23     18.797363   24.242922   23.539375 H          1 MOL1         0.3769
      50    C15     16.859066   22.690600   22.346444 C.3        1 MOL1         0.1053
      51    H24     17.659083   22.069738   22.773563 H          1 MOL1         0.0783
      52    O13     15.758385   22.761942   23.259260 O.3        1 MOL1        -0.5519
      53    H25     16.046961   23.400926   23.950445 H          1 MOL1         0.3769
      54    C16     16.416387   22.054357   20.998846 C.3        1 MOL1         0.1018
      55    H26     15.479855   22.523313   20.671500 H          1 MOL1         0.0783
      56    C17     17.487287   22.232161   19.887946 C.3        1 MOL1         0.1043
      57    H27     18.345395   21.597120   20.138939 H          1 MOL1         0.0783
      58    O14     17.922145   23.611951   19.830717 O.3        1 MOL1        -0.3740
      59    C18     17.000465   21.809185   18.479111 C.3        1 MOL1         0.0138
      60    H28     16.945966   20.713711   18.439642 H          1 MOL1         0.0794
      61    H29     17.753766   22.120518   17.743474 H          1 MOL1         0.0794
      62    O15     15.723136   22.364687   18.142592 O.3        1 MOL1        -0.5486
      63    H30     15.046876   21.881567   18.664239 H          1 MOL1         0.3769
      64    C19     23.616339   22.800727   21.979178 C.3        1 MOL1         0.2972
      65    H31     24.698522   22.925594   22.114380 H          1 MOL1         0.0751
      66    O16     23.260092   21.411781   21.840700 O.3        1 MOL1        -0.3740
      67    C20     22.869301   23.363522   23.211059 C.3        1 MOL1         0.1003
      68    H32     23.103464   24.433462   23.284996 H          1 MOL1         0.0783
      69    O17     23.307428   22.694147   24.403538 O.3        1 MOL1        -0.5519
      70    H33     23.582925   21.787567   24.128448 H          1 MOL1         0.3769
      71    C21     21.340706   23.215453   23.038310 C.3        1 MOL1         0.1053
      72    H34     21.102291   22.146005   23.050700 H          1 MOL1         0.0783
      73    O18     20.671430   23.870891   24.120196 O.3        1 MOL1        -0.5519
      74    H35     21.142398   23.568890   24.928713 H          1 MOL1         0.3769
      75    C22     20.857810   23.794377   21.687040 C.3        1 MOL1         0.1018
      76    H36     20.831943   24.889466   21.762201 H          1 MOL1         0.0783
      77    C23     21.749843   23.355441   20.492640 C.3        1 MOL1         0.1043
      78    H37     21.540231   22.296372   20.305290 H          1 MOL1         0.0783
      79    O19     23.158760   23.508221   20.807657 O.3        1 MOL1        -0.3740
      80    C24     21.451543   24.123697   19.183357 C.3        1 MOL1         0.0138
      81    H38     20.466540   23.810300   18.811846 H          1 MOL1         0.0794
      82    H39     22.192842   23.831879   18.427365 H          1 MOL1         0.0794
      83    O20     21.469057   25.543414   19.377256 O.3        1 MOL1        -0.5486
      84    H40     21.325265   25.965379   18.502359 H          1 MOL1         0.3769
      85    C25     24.793342   17.707879   20.745854 C.3        1 MOL1         0.2972
      86    H41     25.388150   16.874888   20.349825 H          1 MOL1         0.0751
      87    O21     23.477123   17.271320   21.146656 O.3        1 MOL1        -0.3740
      88    C26     25.511322   18.393030   21.940641 C.3        1 MOL1         0.1003
      89    H42     26.450945   18.808399   21.553751 H          1 MOL1         0.0783
      90    O22     25.820003   17.466287   22.991712 O.3        1 MOL1        -0.5519
      91    H43     24.956752   17.117095   23.329865 H          1 MOL1         0.3769
      92    C27     24.660060   19.570336   22.475292 C.3        1 MOL1         0.1053
      93    H44     23.731016   19.161012   22.892958 H          1 MOL1         0.0783
      94    O23     25.384483   20.266351   23.495158 O.3        1 MOL1        -0.5519
      95    H45     25.754398   19.563373   24.073822 H          1 MOL1         0.3769
      96    C28     24.293609   20.548627   21.331238 C.3        1 MOL1         0.1018
      97    H46     25.198572   21.106656   21.057996 H          1 MOL1         0.0783
      98    C29     23.743418   19.819120   20.071748 C.3        1 MOL1         0.1043
      99    H47     22.747126   19.424429   20.310748 H          1 MOL1         0.0783
     100    O24     24.624892   18.719560   19.728860 O.3        1 MOL1        -0.3740
     101    C30     23.591669   20.719325   18.816260 C.3        1 MOL1         0.0138
     102    H48     22.585749   21.152082   18.813657 H          1 MOL1         0.0794
     103    H49     23.660186   20.084592   17.922737 H          1 MOL1         0.0794
     104    O25     24.560959   21.772017   18.744686 O.3        1 MOL1        -0.5486
     105    H50     24.283854   22.462663   19.390959 H          1 MOL1         0.3769
     106    C31     21.211296   13.935563   22.102419 C.3        1 MOL1         0.2972
     107    H51     20.837014   12.943352   22.385451 H          1 MOL1         0.0751
     108    O26     20.131657   14.811143   21.723328 O.3        1 MOL1        -0.3740
     109    C32     21.982267   14.560868   23.292720 C.3        1 MOL1         0.1003
     110    H52     22.852484   13.921659   23.489535 H          1 MOL1         0.0783
     111    O27     21.154850   14.586030   24.466648 O.3        1 MOL1        -0.5519
     112    H53     21.200616   15.496066   24.856191 H          1 MOL1         0.3769
     113    C33     22.507999   15.967451   22.916165 C.3        1 MOL1         0.1053
     114    H54     21.643142   16.617831   22.736165 H          1 MOL1         0.0783
     115    O28     23.309849   16.498974   23.978888 O.3        1 MOL1        -0.5519
     116    H55     22.672327   16.804343   24.677150 H          1 MOL1         0.3769
     117    C34     23.343041   15.912046   21.611950 C.3        1 MOL1         0.1018
     118    H56     24.316103   15.453655   21.832876 H          1 MOL1         0.0783
     119    C35     22.623858   15.117495   20.485210 C.3        1 MOL1         0.1043
     120    H57     21.781020   15.731441   20.145430 H          1 MOL1         0.0783
     121    O29     22.118106   13.847986   20.980870 O.3        1 MOL1        -0.3740
     122    C36     23.518351   14.842190   19.253052 C.3        1 MOL1         0.0138
     123    H58     23.692600   15.792414   18.730197 H          1 MOL1         0.0794
     124    H59     22.973156   14.185361   18.561995 H          1 MOL1         0.0794
     125    O30     24.771670   14.251363   19.618200 O.3        1 MOL1        -0.5486
     126    H60     25.249734   14.029839   18.789542 H          1 MOL1         0.3769
     127    C1      20.182025   17.970387   25.464945 C.2        1 MOL1         0.6145
     128    O1      19.701573   18.532284   26.429186 O.co2      1 MOL1        -0.6735
     129    O2      21.113324   17.189121   25.530206 O.co2      1 MOL1        -0.6735
     130    C2      19.604091   18.275184   24.086794 C.3        1 MOL1        -0.1985
     131    H1      18.603242   18.701262   24.222926 H          1 MOL1         0.0740
     132    H2      19.483219   17.320644   23.563597 H          1 MOL1         0.0740
     133    C3      20.488198   19.254885   23.270761 C.3        1 MOL1        -0.1882
     134    H3      20.617304   20.167686   23.865140 H          1 MOL1         0.0742
     135    H4      21.490968   18.831821   23.140471 H          1 MOL1         0.0742
     136    C4      19.901082   19.630268   21.889361 C.3        1 MOL1        -0.1880
     137    H5      20.523165   20.420401   21.453543 H          1 MOL1         0.0742
     138    H6      18.900207   20.058978   22.026769 H          1 MOL1         0.0742
     139    C5      19.828735   18.435654   20.908033 C.3        1 MOL1        -0.1880
     140    H7      20.829660   18.013114   20.755563 H          1 MOL1         0.0742
     141    H8      19.221946   17.643023   21.360060 H          1 MOL1         0.0742
     142    C6      19.199194   18.802274   19.544659 C.3        1 MOL1        -0.1856
     143    H9      18.226109   19.273577   19.716768 H          1 MOL1         0.0742
     144    H10     18.999134   17.885352   18.977375 H          1 MOL1         0.0742
     145    C7      20.085654   19.720065   18.679329 C.3        1 MOL1        -0.2871
     146    H11     20.268747   20.681067   19.171752 H          1 MOL1         0.0754
     147    H12     19.601360   19.923779   17.716012 H          1 MOL1         0.0754
     148    H13     21.050535   19.240247   18.475064 H          1 MOL1         0.0754
@<TRIPOS>BOND
    1     1     2    1
    2     1     3    1
    3     1     4    1
    4     4     5    1
    5     4     6    1
    6     6     7    1
    7     4     8    1
    8     8     9    1
    9     8    10    1
   10    10    11    1
   11     8    12    1
   12    12    13    1
   13    12    14    1
   14    14    15    1
   15     1    16    1
   16    14    16    1
   17    14    17    1
   18    17    18    1
   19    17    19    1
   20    17    20    1
   21    20    21    1
   22    22    23    1
   23    22    24    1
   24    22    25    1
   25    25    26    1
   26    25    27    1
   27    27    28    1
   28    25    29    1
   29    29    30    1
   30    29    31    1
   31    31    32    1
   32     3    33    1
   33    29    33    1
   34    33    34    1
   35    33    35    1
   36    35    36    1
   37    22    37    1
   38    35    37    1
   39    35    38    1
   40    38    39    1
   41    38    40    1
   42    38    41    1
   43    41    42    1
   44    43    44    1
   45    43    45    1
   46    43    46    1
   47    46    47    1
   48    46    48    1
   49    48    49    1
   50    46    50    1
   51    50    51    1
   52    50    52    1
   53    52    53    1
   54    24    54    1
   55    50    54    1
   56    54    55    1
   57    54    56    1
   58    56    57    1
   59    43    58    1
   60    56    58    1
   61    56    59    1
   62    59    60    1
   63    59    61    1
   64    59    62    1
   65    62    63    1
   66    64    65    1
   67    64    66    1
   68    64    67    1
   69    67    68    1
   70    67    69    1
   71    69    70    1
   72    67    71    1
   73    71    72    1
   74    71    73    1
   75    73    74    1
   76    45    75    1
   77    71    75    1
   78    75    76    1
   79    75    77    1
   80    77    78    1
   81    64    79    1
   82    77    79    1
   83    77    80    1
   84    80    81    1
   85    80    82    1
   86    80    83    1
   87    83    84    1
   88    85    86    1
   89    85    87    1
   90    85    88    1
   91    88    89    1
   92    88    90    1
   93    90    91    1
   94    88    92    1
   95    92    93    1
   96    92    94    1
   97    94    95    1
   98    66    96    1
   99    92    96    1
  100    96    97    1
  101    96    98    1
  102    98    99    1
  103    85   100    1
  104    98   100    1
  105    98   101    1
  106   101   102    1
  107   101   103    1
  108   101   104    1
  109   104   105    1
  110   106   107    1
  111    12   108    1
  112   106   108    1
  113   106   109    1
  114   109   110    1
  115   109   111    1
  116   111   112    1
  117   109   113    1
  118   113   114    1
  119   113   115    1
  120   115   116    1
  121    87   117    1
  122   113   117    1
  123   117   118    1
  124   117   119    1
  125   119   120    1
  126   106   121    1
  127   119   121    1
  128   119   122    1
  129   122   123    1
  130   122   124    1
  131   122   125    1
  132   125   126    1
  133   127   128    1
  134   127   129    2
  135   127   130    1
  136   130   131    1
  137   130   132    1
  138   130   133    1
  139   133   134    1
  140   133   135    1
  141   133   136    1
  142   136   137    1
  143   136   138    1
  144   136   139    1
  145   139   140    1
  146   139   141    1
  147   139   142    1
  148   142   143    1
  149   142   144    1
  150   142   145    1
  151   145   146    1
  152   145   147    1
  153   145   148    1
@<TRIPOS>SUBSTRUCTURE
       1 MOL1            1 RESIDUE      1      MOL     
       2 MOL1          148 RESIDUE      1      MOL     
@<SCITEGIC>MOL_PROPERTY
feprocess Rank
SciTegic.value.IntegerValue
6

@<SCITEGIC>MOL_PROPERTY
Conf_Id
SciTegic.value.IntegerValue
545

@<SCITEGIC>MOL_PROPERTY
Probability
SciTegic.value.DoubleValue
2.93

@<SCITEGIC>MOL_PROPERTY
G
SciTegic.value.DoubleValue
508.303

@<SCITEGIC>MOL_PROPERTY
E
SciTegic.value.DoubleValue
314.514

@<SCITEGIC>MOL_PROPERTY
-TS
SciTegic.value.DoubleValue
193.789

@<SCITEGIC>MOL_PROPERTY
U+W
SciTegic.value.DoubleValue
183.954

@<SCITEGIC>MOL_PROPERTY
U
SciTegic.value.DoubleValue
263.765

@<SCITEGIC>MOL_PROPERTY
W
SciTegic.value.DoubleValue
-79.810

@<SCITEGIC>MOL_PROPERTY
W(PB)
SciTegic.value.DoubleValue
-85.895

@<SCITEGIC>MOL_PROPERTY
W(SA)
SciTegic.value.DoubleValue
6.085

@<SCITEGIC>MOL_PROPERTY
Valence
SciTegic.value.DoubleValue
153.957

@<SCITEGIC>MOL_PROPERTY
Coulomb
SciTegic.value.DoubleValue
137.112

@<SCITEGIC>MOL_PROPERTY
VdW
SciTegic.value.DoubleValue
-27.304

@<SCITEGIC>MOL_PROPERTY
VdW6
SciTegic.value.DoubleValue
-190.703

@<SCITEGIC>MOL_PROPERTY
VdW12
SciTegic.value.DoubleValue
163.399

@<SCITEGIC>MOL_PROPERTY
Bond
SciTegic.value.DoubleValue
4.989

@<SCITEGIC>MOL_PROPERTY
Angle
SciTegic.value.DoubleValue
14.676

@<SCITEGIC>MOL_PROPERTY
Pdih
SciTegic.value.DoubleValue
134.292

@<SCITEGIC>MOL_PROPERTY
Idih
SciTegic.value.DoubleValue
0.001

@<SCITEGIC>MOL_PROPERTY
Tether
SciTegic.value.DoubleValue
0.000

@<TRIPOS>MOLECULE
CD_guest-s21_fast_vm2_rndm.mol2 : feprocess host+ligand conformer 7
         148         153           2
SMALL
USER_CHARGES
 
@<TRIPOS>ATOM
       1    C1      16.271816   15.279192   20.634407 C.3        1 MOL1         0.2972
       2    H1      15.265384   15.130840   20.222299 H          1 MOL1         0.0751
       3    O1      16.482422   16.648431   21.041103 O.3        1 MOL1        -0.3740
       4    C2      16.525160   14.347046   21.847710 C.3        1 MOL1         0.1003
       5    H2      16.470930   13.312955   21.484300 H          1 MOL1         0.0783
       6    O2      15.517415   14.534271   22.853057 O.3        1 MOL1        -0.5519
       7    H3      15.610629   15.459902   23.190030 H          1 MOL1         0.3769
       8    C3      17.958146   14.582728   22.396882 C.3        1 MOL1         0.1053
       9    H4      18.017404   15.617775   22.761001 H          1 MOL1         0.0783
      10    O3      18.252013   13.685145   23.471186 O.3        1 MOL1        -0.5519
      11    H5      18.815388   14.222068   24.087527 H          1 MOL1         0.3769
      12    C4      19.011005   14.404517   21.269640 C.3        1 MOL1         0.1018
      13    H6      19.054531   13.339636   21.006801 H          1 MOL1         0.0783
      14    C5      18.639878   15.229826   20.003171 C.3        1 MOL1         0.1043
      15    H7      18.741131   16.292917   20.250622 H          1 MOL1         0.0783
      16    O4      17.264338   14.956479   19.637042 O.3        1 MOL1        -0.3740
      17    C6      19.520257   14.961349   18.754666 C.3        1 MOL1         0.0138
      18    H8      20.377538   15.642851   18.773135 H          1 MOL1         0.0794
      19    H9      18.939128   15.217760   17.858827 H          1 MOL1         0.0794
      20    O5      19.982480   13.608655   18.665830 O.3        1 MOL1        -0.5486
      21    H10     20.724788   13.517794   19.308513 H          1 MOL1         0.3769
      22    C7      14.687110   20.303826   21.623025 C.3        1 MOL1         0.2972
      23    H11     14.024898   21.167448   21.766333 H          1 MOL1         0.0751
      24    O6      16.059869   20.702181   21.457609 O.3        1 MOL1        -0.3740
      25    C8      14.613711   19.371958   22.853309 C.3        1 MOL1         0.1003
      26    H12     13.585481   18.994404   22.926392 H          1 MOL1         0.0783
      27    O7      14.943270   20.093968   24.051268 O.3        1 MOL1        -0.5519
      28    H13     15.493887   20.868162   23.777087 H          1 MOL1         0.3769
      29    C9      15.559240   18.163456   22.670243 C.3        1 MOL1         0.1053
      30    H14     16.588347   18.541418   22.679028 H          1 MOL1         0.0783
      31    O8      15.371615   17.261932   23.764112 O.3        1 MOL1        -0.5519
      32    H15     15.380781   17.833730   24.563878 H          1 MOL1         0.3769
      33    C10     15.311316   17.442603   21.317080 C.3        1 MOL1         0.1018
      34    H16     14.407027   16.826368   21.408450 H          1 MOL1         0.0783
      35    C11     15.169738   18.430795   20.122605 C.3        1 MOL1         0.1043
      36    H17     16.171586   18.818070   19.897297 H          1 MOL1         0.0783
      37    O9      14.300062   19.543419   20.460166 O.3        1 MOL1        -0.3740
      38    C12     14.638619   17.766512   18.830190 C.3        1 MOL1         0.0138
      39    H18     15.417995   17.100485   18.435554 H          1 MOL1         0.0794
      40    H19     14.466847   18.548762   18.078602 H          1 MOL1         0.0794
      41    O10     13.435299   17.023346   19.060947 O.3        1 MOL1        -0.5486
      42    H20     13.117083   16.694067   18.192203 H          1 MOL1         0.3769
      43    C13     18.469259   23.992418   20.699249 C.3        1 MOL1         0.2972
      44    H21     18.883119   24.962629   20.396034 H          1 MOL1         0.0751
      45    O11     19.515125   23.050130   21.019497 O.3        1 MOL1        -0.3740
      46    C14     17.510861   24.142263   21.913682 C.3        1 MOL1         0.1003
      47    H22     16.675858   24.775604   21.586944 H          1 MOL1         0.0783
      48    O12     18.149140   24.768464   23.035943 O.3        1 MOL1        -0.5519
      49    H23     18.878874   24.164291   23.325248 H          1 MOL1         0.3769
      50    C15     16.931229   22.763307   22.312954 C.3        1 MOL1         0.1053
      51    H24     17.756956   22.130199   22.667666 H          1 MOL1         0.0783
      52    O13     15.962665   22.926220   23.354501 O.3        1 MOL1        -0.5519
      53    H25     16.369554   23.559193   23.987266 H          1 MOL1         0.3769
      54    C16     16.279138   22.072506   21.090344 C.3        1 MOL1         0.1018
      55    H26     15.343567   22.593715   20.848562 H          1 MOL1         0.0783
      56    C17     17.204946   22.078587   19.843974 C.3        1 MOL1         0.1043
      57    H27     18.053036   21.418939   20.051866 H          1 MOL1         0.0783
      58    O14     17.692004   23.425840   19.618324 O.3        1 MOL1        -0.3740
      59    C18     16.549427   21.547923   18.541955 C.3        1 MOL1         0.0138
      60    H28     16.748918   20.471170   18.469674 H          1 MOL1         0.0794
      61    H29     17.046691   22.018494   17.683362 H          1 MOL1         0.0794
      62    O15     15.136162   21.777023   18.479701 O.3        1 MOL1        -0.5486
      63    H30     14.712271   21.133345   19.093835 H          1 MOL1         0.3769
      64    C19     23.516323   22.657781   22.000735 C.3        1 MOL1         0.2972
      65    H31     24.562717   22.797720   22.301101 H          1 MOL1         0.0751
      66    O16     23.289835   21.343275   21.455765 O.3        1 MOL1        -0.3740
      67    C20     22.574740   22.870266   23.213368 C.3        1 MOL1         0.1003
      68    H32     22.711455   23.905582   23.551858 H          1 MOL1         0.0783
      69    O17     22.890243   21.978533   24.294787 O.3        1 MOL1        -0.5519
      70    H33     23.694105   21.469165   24.029057 H          1 MOL1         0.3769
      71    C21     21.097464   22.694983   22.795391 C.3        1 MOL1         0.1053
      72    H34     20.950767   21.643248   22.522009 H          1 MOL1         0.0783
      73    O18     20.261110   23.024047   23.908468 O.3        1 MOL1        -0.5519
      74    H35     20.663208   22.541034   24.665439 H          1 MOL1         0.3769
      75    C22     20.742553   23.572506   21.566356 C.3        1 MOL1         0.1018
      76    H36     20.637063   24.614880   21.894733 H          1 MOL1         0.0783
      77    C23     21.811962   23.475731   20.440784 C.3        1 MOL1         0.1043
      78    H37     21.721181   22.485611   19.974422 H          1 MOL1         0.0783
      79    O19     23.147030   23.621152   20.991594 O.3        1 MOL1        -0.3740
      80    C24     21.625929   24.525907   19.319701 C.3        1 MOL1         0.0138
      81    H38     20.733606   24.258197   18.737693 H          1 MOL1         0.0794
      82    H39     22.487169   24.469024   18.640628 H          1 MOL1         0.0794
      83    O20     21.486774   25.854584   19.839005 O.3        1 MOL1        -0.5486
      84    H40     21.454012   26.471058   19.075200 H          1 MOL1         0.3769
      85    C25     25.109300   17.662484   21.040853 C.3        1 MOL1         0.2972
      86    H41     25.757886   16.803407   20.826564 H          1 MOL1         0.0751
      87    O21     23.766437   17.255208   21.376578 O.3        1 MOL1        -0.3740
      88    C26     25.671790   18.508803   22.210170 C.3        1 MOL1         0.1003
      89    H42     26.635813   18.917820   21.880561 H          1 MOL1         0.0783
      90    O22     25.885377   17.715117   23.386425 O.3        1 MOL1        -0.5519
      91    H43     25.049670   17.210071   23.558022 H          1 MOL1         0.3769
      92    C27     24.729910   19.700179   22.511722 C.3        1 MOL1         0.1053
      93    H44     23.773413   19.300967   22.878792 H          1 MOL1         0.0783
      94    O23     25.330032   20.524738   23.516207 O.3        1 MOL1        -0.5519
      95    H45     25.713189   19.891256   24.165149 H          1 MOL1         0.3769
      96    C28     24.454027   20.527666   21.226660 C.3        1 MOL1         0.1018
      97    H46     25.335742   21.140271   21.000437 H          1 MOL1         0.0783
      98    C29     24.122057   19.642091   19.991915 C.3        1 MOL1         0.1043
      99    H47     23.107400   19.243787   20.115744 H          1 MOL1         0.0783
     100    O24     25.047596   18.532693   19.892165 O.3        1 MOL1        -0.3740
     101    C30     24.147726   20.425608   18.655793 C.3        1 MOL1         0.0138
     102    H48     23.305842   21.130129   18.645774 H          1 MOL1         0.0794
     103    H49     23.987527   19.715304   17.833930 H          1 MOL1         0.0794
     104    O25     25.372948   21.141511   18.454805 O.3        1 MOL1        -0.5486
     105    H50     25.351931   21.933461   19.033221 H          1 MOL1         0.3769
     106    C31     21.340828   13.911763   21.860531 C.3        1 MOL1         0.2972
     107    H51     20.944867   12.894575   21.973816 H          1 MOL1         0.0751
     108    O26     20.274639   14.882068   21.780176 O.3        1 MOL1        -0.3740
     109    C32     22.262589   14.245508   23.061108 C.3        1 MOL1         0.1003
     110    H52     23.125269   13.569928   22.998323 H          1 MOL1         0.0783
     111    O27     21.602425   14.007301   24.311994 O.3        1 MOL1        -0.5519
     112    H53     20.975863   14.763187   24.470094 H          1 MOL1         0.3769
     113    C33     22.792953   15.693697   22.930139 C.3        1 MOL1         0.1053
     114    H54     21.939368   16.380487   22.911272 H          1 MOL1         0.0783
     115    O28     23.634491   16.027783   24.037637 O.3        1 MOL1        -0.5519
     116    H55     22.993068   16.249097   24.764673 H          1 MOL1         0.3769
     117    C34     23.551352   15.846402   21.590604 C.3        1 MOL1         0.1018
     118    H56     24.493833   15.286563   21.652733 H          1 MOL1         0.0783
     119    C35     22.700653   15.336880   20.392812 C.3        1 MOL1         0.1043
     120    H57     21.880292   16.051971   20.255533 H          1 MOL1         0.0783
     121    O29     22.141891   14.020973   20.662505 O.3        1 MOL1        -0.3740
     122    C36     23.491055   15.271209   19.064461 C.3        1 MOL1         0.0138
     123    H58     23.706228   16.297279   18.736214 H          1 MOL1         0.0794
     124    H59     22.854608   14.809218   18.297870 H          1 MOL1         0.0794
     125    O30     24.715225   14.539241   19.204416 O.3        1 MOL1        -0.5486
     126    H60     25.137402   14.493143   18.319148 H          1 MOL1         0.3769
     127    C1      20.124017   16.903432   24.981991 C.2        1 MOL1         0.6145
     128    O1      21.281713   16.992971   25.344965 O.co2      1 MOL1        -0.6735
     129    O2      19.571172   15.835417   24.801070 O.co2      1 MOL1        -0.6735
     130    C2      19.326800   18.182405   24.736328 C.3        1 MOL1        -0.1985
     131    H1      19.345753   18.754777   25.670554 H          1 MOL1         0.0740
     132    H2      18.280404   17.910796   24.552599 H          1 MOL1         0.0740
     133    C3      19.856982   19.071771   23.579839 C.3        1 MOL1        -0.1882
     134    H3      19.325409   20.032350   23.609749 H          1 MOL1         0.0742
     135    H4      20.920421   19.294703   23.745689 H          1 MOL1         0.0742
     136    C4      19.666749   18.435778   22.184031 C.3        1 MOL1        -0.1880
     137    H5      18.617017   18.157265   22.044077 H          1 MOL1         0.0742
     138    H6      20.247068   17.509945   22.113763 H          1 MOL1         0.0742
     139    C5      20.095432   19.401012   21.060688 C.3        1 MOL1        -0.1880
     140    H7      19.561469   20.349191   21.183144 H          1 MOL1         0.0742
     141    H8      21.163829   19.623674   21.164050 H          1 MOL1         0.0742
     142    C6      19.809340   18.829092   19.657768 C.3        1 MOL1        -0.1856
     143    H9      18.738390   18.603059   19.564856 H          1 MOL1         0.0742
     144    H10     20.353768   17.885260   19.532545 H          1 MOL1         0.0742
     145    C7      20.225001   19.804794   18.539528 C.3        1 MOL1        -0.2871
     146    H11     19.717710   20.771530   18.642577 H          1 MOL1         0.0754
     147    H12     19.974838   19.392174   17.553890 H          1 MOL1         0.0754
     148    H13     21.304136   19.985367   18.565373 H          1 MOL1         0.0754
@<TRIPOS>BOND
    1     1     2    1
    2     1     3    1
    3     1     4    1
    4     4     5    1
    5     4     6    1
    6     6     7    1
    7     4     8    1
    8     8     9    1
    9     8    10    1
   10    10    11    1
   11     8    12    1
   12    12    13    1
   13    12    14    1
   14    14    15    1
   15     1    16    1
   16    14    16    1
   17    14    17    1
   18    17    18    1
   19    17    19    1
   20    17    20    1
   21    20    21    1
   22    22    23    1
   23    22    24    1
   24    22    25    1
   25    25    26    1
   26    25    27    1
   27    27    28    1
   28    25    29    1
   29    29    30    1
   30    29    31    1
   31    31    32    1
   32     3    33    1
   33    29    33    1
   34    33    34    1
   35    33    35    1
   36    35    36    1
   37    22    37    1
   38    35    37    1
   39    35    38    1
   40    38    39    1
   41    38    40    1
   42    38    41    1
   43    41    42    1
   44    43    44    1
   45    43    45    1
   46    43    46    1
   47    46    47    1
   48    46    48    1
   49    48    49    1
   50    46    50    1
   51    50    51    1
   52    50    52    1
   53    52    53    1
   54    24    54    1
   55    50    54    1
   56    54    55    1
   57    54    56    1
   58    56    57    1
   59    43    58    1
   60    56    58    1
   61    56    59    1
   62    59    60    1
   63    59    61    1
   64    59    62    1
   65    62    63    1
   66    64    65    1
   67    64    66    1
   68    64    67    1
   69    67    68    1
   70    67    69    1
   71    69    70    1
   72    67    71    1
   73    71    72    1
   74    71    73    1
   75    73    74    1
   76    45    75    1
   77    71    75    1
   78    75    76    1
   79    75    77    1
   80    77    78    1
   81    64    79    1
   82    77    79    1
   83    77    80    1
   84    80    81    1
   85    80    82    1
   86    80    83    1
   87    83    84    1
   88    85    86    1
   89    85    87    1
   90    85    88    1
   91    88    89    1
   92    88    90    1
   93    90    91    1
   94    88    92    1
   95    92    93    1
   96    92    94    1
   97    94    95    1
   98    66    96    1
   99    92    96    1
  100    96    97    1
  101    96    98    1
  102    98    99    1
  103    85   100    1
  104    98   100    1
  105    98   101    1
  106   101   102    1
  107   101   103    1
  108   101   104    1
  109   104   105    1
  110   106   107    1
  111    12   108    1
  112   106   108    1
  113   106   109    1
  114   109   110    1
  115   109   111    1
  116   111   112    1
  117   109   113    1
  118   113   114    1
  119   113   115    1
  120   115   116    1
  121    87   117    1
  122   113   117    1
  123   117   118    1
  124   117   119    1
  125   119   120    1
  126   106   121    1
  127   119   121    1
  128   119   122    1
  129   122   123    1
  130   122   124    1
  131   122   125    1
  132   125   126    1
  133   127   128    1
  134   127   129    2
  135   127   130    1
  136   130   131    1
  137   130   132    1
  138   130   133    1
  139   133   134    1
  140   133   135    1
  141   133   136    1
  142   136   137    1
  143   136   138    1
  144   136   139    1
  145   139   140    1
  146   139   141    1
  147   139   142    1
  148   142   143    1
  149   142   144    1
  150   142   145    1
  151   145   146    1
  152   145   147    1
  153   145   148    1
@<TRIPOS>SUBSTRUCTURE
       1 MOL1            1 RESIDUE      1      MOL     
       2 MOL1          148 RESIDUE      1      MOL     
@<SCITEGIC>MOL_PROPERTY
feprocess Rank
SciTegic.value.IntegerValue
7

@<SCITEGIC>MOL_PROPERTY
Conf_Id
SciTegic.value.IntegerValue
150

@<SCITEGIC>MOL_PROPERTY
Probability
SciTegic.value.DoubleValue
2.76

@<SCITEGIC>MOL_PROPERTY
G
SciTegic.value.DoubleValue
508.337

@<SCITEGIC>MOL_PROPERTY
E
SciTegic.value.DoubleValue
314.371

@<SCITEGIC>MOL_PROPERTY
-TS
SciTegic.value.DoubleValue
193.967

@<SCITEGIC>MOL_PROPERTY
U+W
SciTegic.value.DoubleValue
183.811

@<SCITEGIC>MOL_PROPERTY
U
SciTegic.value.DoubleValue
257.777

@<SCITEGIC>MOL_PROPERTY
W
SciTegic.value.DoubleValue
-73.966

@<SCITEGIC>MOL_PROPERTY
W(PB)
SciTegic.value.DoubleValue
-79.969

@<SCITEGIC>MOL_PROPERTY
W(SA)
SciTegic.value.DoubleValue
6.003

@<SCITEGIC>MOL_PROPERTY
Valence
SciTegic.value.DoubleValue
155.220

@<SCITEGIC>MOL_PROPERTY
Coulomb
SciTegic.value.DoubleValue
128.342

@<SCITEGIC>MOL_PROPERTY
VdW
SciTegic.value.DoubleValue
-25.785

@<SCITEGIC>MOL_PROPERTY
VdW6
SciTegic.value.DoubleValue
-189.831

@<SCITEGIC>MOL_PROPERTY
VdW12
SciTegic.value.DoubleValue
164.046

@<SCITEGIC>MOL_PROPERTY
Bond
SciTegic.value.DoubleValue
5.153

@<SCITEGIC>MOL_PROPERTY
Angle
SciTegic.value.DoubleValue
14.661

@<SCITEGIC>MOL_PROPERTY
Pdih
SciTegic.value.DoubleValue
135.406

@<SCITEGIC>MOL_PROPERTY
Idih
SciTegic.value.DoubleValue
0.000

@<SCITEGIC>MOL_PROPERTY
Tether
SciTegic.value.DoubleValue
0.000

@<TRIPOS>MOLECULE
CD_guest-s21_fast_vm2_rndm.mol2 : feprocess host+ligand conformer 8
         148         153           2
SMALL
USER_CHARGES
 
@<TRIPOS>ATOM
       1    C1      16.174699   15.077520   20.275214 C.3        1 MOL1         0.2972
       2    H1      15.189391   14.974669   19.802697 H          1 MOL1         0.0751
       3    O1      16.425319   16.434258   20.702807 O.3        1 MOL1        -0.3740
       4    C2      16.339032   14.108787   21.473578 C.3        1 MOL1         0.1003
       5    H2      16.330389   13.089011   21.066971 H          1 MOL1         0.0783
       6    O2      15.269447   14.232905   22.421519 O.3        1 MOL1        -0.5519
       7    H3      15.331130   15.143211   22.805914 H          1 MOL1         0.3769
       8    C3      17.712444   14.338468   22.149714 C.3        1 MOL1         0.1053
       9    H4      17.706594   15.339051   22.603838 H          1 MOL1         0.0783
      10    O3      17.913537   13.350511   23.165165 O.3        1 MOL1        -0.5519
      11    H5      17.073428   13.325796   23.673996 H          1 MOL1         0.3769
      12    C4      18.875654   14.281630   21.122082 C.3        1 MOL1         0.1018
      13    H6      19.092451   13.225475   20.916857 H          1 MOL1         0.0783
      14    C5      18.568681   15.015671   19.778328 C.3        1 MOL1         0.1043
      15    H7      18.648116   16.094037   19.951211 H          1 MOL1         0.0783
      16    O4      17.217355   14.718644   19.342642 O.3        1 MOL1        -0.3740
      17    C6      19.541325   14.694791   18.612022 C.3        1 MOL1         0.0138
      18    H8      20.328985   15.457356   18.594918 H          1 MOL1         0.0794
      19    H9      18.994249   14.794866   17.665054 H          1 MOL1         0.0794
      20    O5      20.132482   13.392218   18.697196 O.3        1 MOL1        -0.5486
      21    H10     20.772434   13.410571   19.447030 H          1 MOL1         0.3769
      22    C7      14.914809   20.102183   21.734016 C.3        1 MOL1         0.2972
      23    H11     14.319026   20.985087   22.000004 H          1 MOL1         0.0751
      24    O6      16.293424   20.443174   21.497324 O.3        1 MOL1        -0.3740
      25    C8      14.866087   19.068178   22.880679 C.3        1 MOL1         0.1003
      26    H12     13.820150   18.757314   23.001064 H          1 MOL1         0.0783
      27    O7      15.333084   19.649662   24.109043 O.3        1 MOL1        -0.5519
      28    H13     15.719458   20.529702   23.879138 H          1 MOL1         0.3769
      29    C9      15.701551   17.818841   22.521782 C.3        1 MOL1         0.1053
      30    H14     16.756917   18.115516   22.478627 H          1 MOL1         0.0783
      31    O8      15.523407   16.842470   23.551018 O.3        1 MOL1        -0.5519
      32    H15     15.630159   17.347707   24.388731 H          1 MOL1         0.3769
      33    C10     15.312782   17.240091   21.134370 C.3        1 MOL1         0.1018
      34    H16     14.387466   16.656968   21.230507 H          1 MOL1         0.0783
      35    C11     15.150706   18.340785   20.045675 C.3        1 MOL1         0.1043
      36    H17     16.156844   18.681130   19.771383 H          1 MOL1         0.0783
      37    O9      14.395255   19.475279   20.543188 O.3        1 MOL1        -0.3740
      38    C12     14.477447   17.829034   18.750229 C.3        1 MOL1         0.0138
      39    H18     15.173577   17.147580   18.242641 H          1 MOL1         0.0794
      40    H19     14.310173   18.683108   18.080172 H          1 MOL1         0.0794
      41    O10     13.242166   17.152733   19.015175 O.3        1 MOL1        -0.5486
      42    H20     12.837278   16.921994   18.150623 H          1 MOL1         0.3769
      43    C13     18.585503   23.936773   21.109507 C.3        1 MOL1         0.2972
      44    H21     18.900657   24.956782   20.854737 H          1 MOL1         0.0751
      45    O11     19.681167   23.147320   21.606913 O.3        1 MOL1        -0.3740
      46    C14     17.505899   23.957890   22.224202 C.3        1 MOL1         0.1003
      47    H22     16.658785   24.547998   21.851289 H          1 MOL1         0.0783
      48    O12     18.016768   24.569648   23.419844 O.3        1 MOL1        -0.5519
      49    H23     18.940174   24.234679   23.550237 H          1 MOL1         0.3769
      50    C15     16.994968   22.525728   22.526079 C.3        1 MOL1         0.1053
      51    H24     17.821609   21.946188   22.958636 H          1 MOL1         0.0783
      52    O13     15.909136   22.591594   23.456347 O.3        1 MOL1        -0.5519
      53    H25     16.201882   23.233641   24.141552 H          1 MOL1         0.3769
      54    C16     16.548708   21.828990   21.217103 C.3        1 MOL1         0.1018
      55    H26     15.653972   22.334106   20.829494 H          1 MOL1         0.0783
      56    C17     17.661870   21.888725   20.140727 C.3        1 MOL1         0.1043
      57    H27     18.529494   21.325383   20.503406 H          1 MOL1         0.0783
      58    O14     18.034806   23.273889   19.946922 O.3        1 MOL1        -0.3740
      59    C18     17.261607   21.270926   18.776054 C.3        1 MOL1         0.0138
      60    H28     17.500978   20.199966   18.801585 H          1 MOL1         0.0794
      61    H29     17.886212   21.716973   17.990856 H          1 MOL1         0.0794
      62    O15     15.872833   21.444330   18.463689 O.3        1 MOL1        -0.5486
      63    H30     15.358408   20.920905   19.120094 H          1 MOL1         0.3769
      64    C19     23.792882   22.953700   21.820704 C.3        1 MOL1         0.2972
      65    H31     24.874949   23.133908   21.849725 H          1 MOL1         0.0751
      66    O16     23.495604   21.541958   21.879900 O.3        1 MOL1        -0.3740
      67    C20     23.114323   23.671878   23.014304 C.3        1 MOL1         0.1003
      68    H32     23.243876   24.750945   22.860709 H          1 MOL1         0.0783
      69    O17     23.748588   23.308977   24.249892 O.3        1 MOL1        -0.5519
      70    H33     23.066744   22.883567   24.829813 H          1 MOL1         0.3769
      71    C21     21.594926   23.374283   23.008679 C.3        1 MOL1         0.1053
      72    H34     21.456719   22.293346   23.130919 H          1 MOL1         0.0783
      73    O18     20.927211   24.068767   24.070598 O.3        1 MOL1        -0.5519
      74    H35     21.153965   23.569819   24.898946 H          1 MOL1         0.3769
      75    C22     20.973399   23.780120   21.651155 C.3        1 MOL1         0.1018
      76    H36     20.900728   24.875079   21.616779 H          1 MOL1         0.0783
      77    C23     21.789714   23.252595   20.436671 C.3        1 MOL1         0.1043
      78    H37     21.613288   22.171337   20.376823 H          1 MOL1         0.0783
      79    O19     23.212645   23.491593   20.613156 O.3        1 MOL1        -0.3740
      80    C24     21.361963   23.872200   19.084348 C.3        1 MOL1         0.0138
      81    H38     20.377649   23.471036   18.810118 H          1 MOL1         0.0794
      82    H39     22.070458   23.549869   18.309688 H          1 MOL1         0.0794
      83    O20     21.306754   25.303018   19.140936 O.3        1 MOL1        -0.5486
      84    H40     21.079684   25.628140   18.242734 H          1 MOL1         0.3769
      85    C25     24.783131   17.756883   20.775437 C.3        1 MOL1         0.2972
      86    H41     25.311933   16.882371   20.376047 H          1 MOL1         0.0751
      87    O21     23.452016   17.413863   21.211615 O.3        1 MOL1        -0.3740
      88    C26     25.571798   18.395166   21.947210 C.3        1 MOL1         0.1003
      89    H42     26.547555   18.699526   21.546770 H          1 MOL1         0.0783
      90    O22     25.780872   17.463790   23.020173 O.3        1 MOL1        -0.5519
      91    H43     24.884510   17.206580   23.355222 H          1 MOL1         0.3769
      92    C27     24.858988   19.665452   22.470054 C.3        1 MOL1         0.1053
      93    H44     23.930784   19.352926   22.968064 H          1 MOL1         0.0783
      94    O23     25.723421   20.314692   23.407424 O.3        1 MOL1        -0.5519
      95    H45     26.007454   19.611533   24.030863 H          1 MOL1         0.3769
      96    C28     24.484859   20.647832   21.326109 C.3        1 MOL1         0.1018
      97    H46     25.395077   21.178468   21.018443 H          1 MOL1         0.0783
      98    C29     23.859785   19.920957   20.097492 C.3        1 MOL1         0.1043
      99    H47     22.854529   19.592315   20.384360 H          1 MOL1         0.0783
     100    O24     24.663949   18.766174   19.753714 O.3        1 MOL1        -0.3740
     101    C30     23.706488   20.772149   18.809495 C.3        1 MOL1         0.0138
     102    H48     22.700413   21.204693   18.789588 H          1 MOL1         0.0794
     103    H49     23.768487   20.101689   17.941847 H          1 MOL1         0.0794
     104    O25     24.685139   21.810434   18.689534 O.3        1 MOL1        -0.5486
     105    H50     24.398225   22.540377   19.286991 H          1 MOL1         0.3769
     106    C31     21.087356   14.106058   22.132696 C.3        1 MOL1         0.2972
     107    H51     20.732848   13.107765   22.420876 H          1 MOL1         0.0751
     108    O26     19.989056   14.951461   21.746607 O.3        1 MOL1        -0.3740
     109    C32     21.810774   14.769067   23.331896 C.3        1 MOL1         0.1003
     110    H52     22.649354   14.119015   23.613474 H          1 MOL1         0.0783
     111    O27     20.913937   14.896392   24.444863 O.3        1 MOL1        -0.5519
     112    H53     20.037002   15.121941   24.061120 H          1 MOL1         0.3769
     113    C33     22.385634   16.152215   22.948916 C.3        1 MOL1         0.1053
     114    H54     21.545792   16.832803   22.753922 H          1 MOL1         0.0783
     115    O28     23.174392   16.647626   24.036362 O.3        1 MOL1        -0.5519
     116    H55     22.605307   16.540990   24.830387 H          1 MOL1         0.3769
     117    C34     23.245930   16.061623   21.666232 C.3        1 MOL1         0.1018
     118    H56     24.191791   15.558357   21.907153 H          1 MOL1         0.0783
     119    C35     22.512734   15.295513   20.531648 C.3        1 MOL1         0.1043
     120    H57     21.672935   15.921862   20.208281 H          1 MOL1         0.0783
     121    O29     22.003708   14.026154   21.019579 O.3        1 MOL1        -0.3740
     122    C36     23.396209   15.021237   19.290856 C.3        1 MOL1         0.0138
     123    H58     23.581931   15.974247   18.777175 H          1 MOL1         0.0794
     124    H59     22.838220   14.380696   18.594963 H          1 MOL1         0.0794
     125    O30     24.641854   14.406527   19.642590 O.3        1 MOL1        -0.5486
     126    H60     25.109025   14.180506   18.808998 H          1 MOL1         0.3769
     127    C1      21.787282   20.963705   26.134024 C.2        1 MOL1         0.6145
     128    O1      22.023119   20.452113   27.210662 O.co2      1 MOL1        -0.6735
     129    O2      21.831128   22.163193   25.929919 O.co2      1 MOL1        -0.6735
     130    C2      21.374845   20.057762   24.978167 C.3        1 MOL1        -0.1985
     131    H1      22.044085   20.269070   24.137743 H          1 MOL1         0.0740
     132    H2      21.546221   19.016196   25.274668 H          1 MOL1         0.0740
     133    C3      19.893524   20.257888   24.566751 C.3        1 MOL1        -0.1882
     134    H3      19.259416   20.114913   25.452207 H          1 MOL1         0.0742
     135    H4      19.736047   21.294960   24.244559 H          1 MOL1         0.0742
     136    C4      19.416024   19.293823   23.458744 C.3        1 MOL1        -0.1880
     137    H5      18.348446   19.482233   23.290524 H          1 MOL1         0.0742
     138    H6      19.498323   18.256845   23.811339 H          1 MOL1         0.0742
     139    C5      20.171745   19.447184   22.118516 C.3        1 MOL1        -0.1880
     140    H7      20.185437   20.501860   21.820093 H          1 MOL1         0.0742
     141    H8      21.217948   19.137514   22.238120 H          1 MOL1         0.0742
     142    C6      19.502041   18.597252   21.019199 C.3        1 MOL1        -0.1856
     143    H9      18.453871   18.900849   20.906583 H          1 MOL1         0.0742
     144    H10     19.492058   17.549679   21.341208 H          1 MOL1         0.0742
     145    C7      20.212211   18.714865   19.656527 C.3        1 MOL1        -0.2871
     146    H11     21.215175   18.274961   19.701157 H          1 MOL1         0.0754
     147    H12     20.304714   19.764253   19.349412 H          1 MOL1         0.0754
     148    H13     19.647471   18.182063   18.881292 H          1 MOL1         0.0754
@<TRIPOS>BOND
    1     1     2    1
    2     1     3    1
    3     1     4    1
    4     4     5    1
    5     4     6    1
    6     6     7    1
    7     4     8    1
    8     8     9    1
    9     8    10    1
   10    10    11    1
   11     8    12    1
   12    12    13    1
   13    12    14    1
   14    14    15    1
   15     1    16    1
   16    14    16    1
   17    14    17    1
   18    17    18    1
   19    17    19    1
   20    17    20    1
   21    20    21    1
   22    22    23    1
   23    22    24    1
   24    22    25    1
   25    25    26    1
   26    25    27    1
   27    27    28    1
   28    25    29    1
   29    29    30    1
   30    29    31    1
   31    31    32    1
   32     3    33    1
   33    29    33    1
   34    33    34    1
   35    33    35    1
   36    35    36    1
   37    22    37    1
   38    35    37    1
   39    35    38    1
   40    38    39    1
   41    38    40    1
   42    38    41    1
   43    41    42    1
   44    43    44    1
   45    43    45    1
   46    43    46    1
   47    46    47    1
   48    46    48    1
   49    48    49    1
   50    46    50    1
   51    50    51    1
   52    50    52    1
   53    52    53    1
   54    24    54    1
   55    50    54    1
   56    54    55    1
   57    54    56    1
   58    56    57    1
   59    43    58    1
   60    56    58    1
   61    56    59    1
   62    59    60    1
   63    59    61    1
   64    59    62    1
   65    62    63    1
   66    64    65    1
   67    64    66    1
   68    64    67    1
   69    67    68    1
   70    67    69    1
   71    69    70    1
   72    67    71    1
   73    71    72    1
   74    71    73    1
   75    73    74    1
   76    45    75    1
   77    71    75    1
   78    75    76    1
   79    75    77    1
   80    77    78    1
   81    64    79    1
   82    77    79    1
   83    77    80    1
   84    80    81    1
   85    80    82    1
   86    80    83    1
   87    83    84    1
   88    85    86    1
   89    85    87    1
   90    85    88    1
   91    88    89    1
   92    88    90    1
   93    90    91    1
   94    88    92    1
   95    92    93    1
   96    92    94    1
   97    94    95    1
   98    66    96    1
   99    92    96    1
  100    96    97    1
  101    96    98    1
  102    98    99    1
  103    85   100    1
  104    98   100    1
  105    98   101    1
  106   101   102    1
  107   101   103    1
  108   101   104    1
  109   104   105    1
  110   106   107    1
  111    12   108    1
  112   106   108    1
  113   106   109    1
  114   109   110    1
  115   109   111    1
  116   111   112    1
  117   109   113    1
  118   113   114    1
  119   113   115    1
  120   115   116    1
  121    87   117    1
  122   113   117    1
  123   117   118    1
  124   117   119    1
  125   119   120    1
  126   106   121    1
  127   119   121    1
  128   119   122    1
  129   122   123    1
  130   122   124    1
  131   122   125    1
  132   125   126    1
  133   127   128    1
  134   127   129    2
  135   127   130    1
  136   130   131    1
  137   130   132    1
  138   130   133    1
  139   133   134    1
  140   133   135    1
  141   133   136    1
  142   136   137    1
  143   136   138    1
  144   136   139    1
  145   139   140    1
  146   139   141    1
  147   139   142    1
  148   142   143    1
  149   142   144    1
  150   142   145    1
  151   145   146    1
  152   145   147    1
  153   145   148    1
@<TRIPOS>SUBSTRUCTURE
       1 MOL1            1 RESIDUE      1      MOL     
       2 MOL1          148 RESIDUE      1      MOL     
@<SCITEGIC>MOL_PROPERTY
feprocess Rank
SciTegic.value.IntegerValue
8

@<SCITEGIC>MOL_PROPERTY
Conf_Id
SciTegic.value.IntegerValue
54

@<SCITEGIC>MOL_PROPERTY
Probability
SciTegic.value.DoubleValue
2.68

@<SCITEGIC>MOL_PROPERTY
G
SciTegic.value.DoubleValue
508.356

@<SCITEGIC>MOL_PROPERTY
E
SciTegic.value.DoubleValue
315.650

@<SCITEGIC>MOL_PROPERTY
-TS
SciTegic.value.DoubleValue
192.706

@<SCITEGIC>MOL_PROPERTY
U+W
SciTegic.value.DoubleValue
185.091

@<SCITEGIC>MOL_PROPERTY
U
SciTegic.value.DoubleValue
265.777

@<SCITEGIC>MOL_PROPERTY
W
SciTegic.value.DoubleValue
-80.687

@<SCITEGIC>MOL_PROPERTY
W(PB)
SciTegic.value.DoubleValue
-86.753

@<SCITEGIC>MOL_PROPERTY
W(SA)
SciTegic.value.DoubleValue
6.066

@<SCITEGIC>MOL_PROPERTY
Valence
SciTegic.value.DoubleValue
154.556

@<SCITEGIC>MOL_PROPERTY
Coulomb
SciTegic.value.DoubleValue
138.448

@<SCITEGIC>MOL_PROPERTY
VdW
SciTegic.value.DoubleValue
-27.227

@<SCITEGIC>MOL_PROPERTY
VdW6
SciTegic.value.DoubleValue
-188.745

@<SCITEGIC>MOL_PROPERTY
VdW12
SciTegic.value.DoubleValue
161.518

@<SCITEGIC>MOL_PROPERTY
Bond
SciTegic.value.DoubleValue
4.883

@<SCITEGIC>MOL_PROPERTY
Angle
SciTegic.value.DoubleValue
14.895

@<SCITEGIC>MOL_PROPERTY
Pdih
SciTegic.value.DoubleValue
134.777

@<SCITEGIC>MOL_PROPERTY
Idih
SciTegic.value.DoubleValue
0.002

@<SCITEGIC>MOL_PROPERTY
Tether
SciTegic.value.DoubleValue
0.000

