@<TRIPOS>MOLECULE
CD_guest-s10_fast_vm2_rndm.mol2 : feprocess host+ligand conformer 1
         146         151           2
SMALL
USER_CHARGES
 
@<TRIPOS>ATOM
       1    C1      16.277102   15.271571   20.469373 C.3        1 MOL1         0.2972
       2    H1      15.270534   15.079305   20.076213 H          1 MOL1         0.0751
       3    O1      16.395116   16.598358   21.022003 O.3        1 MOL1        -0.3740
       4    C2      16.620012   14.270584   21.601841 C.3        1 MOL1         0.1003
       5    H2      16.566993   13.260053   21.176189 H          1 MOL1         0.0783
       6    O2      15.677604   14.379835   22.681469 O.3        1 MOL1        -0.5519
       7    H3      15.494447   15.343548   22.818612 H          1 MOL1         0.3769
       8    C3      18.062344   14.496529   22.121422 C.3        1 MOL1         0.1053
       9    H4      18.088613   15.473302   22.618123 H          1 MOL1         0.0783
      10    O3      18.380980   13.472515   23.070313 O.3        1 MOL1        -0.5519
      11    H5      17.562689   13.363876   23.606538 H          1 MOL1         0.3769
      12    C4      19.081981   14.513577   20.946226 C.3        1 MOL1         0.1018
      13    H6      19.200669   13.493103   20.559841 H          1 MOL1         0.0783
      14    C5      18.619133   15.443681   19.793461 C.3        1 MOL1         0.1043
      15    H7      18.655044   16.479748   20.151792 H          1 MOL1         0.0783
      16    O4      17.260026   15.118059   19.423095 O.3        1 MOL1        -0.3740
      17    C6      19.515392   15.372028   18.531551 C.3        1 MOL1         0.0138
      18    H8      20.433752   15.942120   18.723798 H          1 MOL1         0.0794
      19    H9      18.994019   15.870469   17.703626 H          1 MOL1         0.0794
      20    O5      19.853437   14.029232   18.164204 O.3        1 MOL1        -0.5486
      21    H10     20.479536   13.689318   18.839630 H          1 MOL1         0.3769
      22    C7      14.605816   20.306010   21.130523 C.3        1 MOL1         0.2972
      23    H11     13.955874   21.188407   21.068872 H          1 MOL1         0.0751
      24    O6      15.975436   20.663828   21.413805 O.3        1 MOL1        -0.3740
      25    C8      14.118446   19.330942   22.232073 C.3        1 MOL1         0.1003
      26    H12     13.121116   18.976627   21.940420 H          1 MOL1         0.0783
      27    O7      14.029366   19.980848   23.509281 O.3        1 MOL1        -0.5519
      28    H13     14.882279   20.461995   23.660549 H          1 MOL1         0.3769
      29    C9      15.058273   18.104230   22.307364 C.3        1 MOL1         0.1053
      30    H14     16.041610   18.452239   22.644720 H          1 MOL1         0.0783
      31    O8      14.541419   17.151536   23.242128 O.3        1 MOL1        -0.5519
      32    H15     14.260674   17.683365   24.020117 H          1 MOL1         0.3769
      33    C10     15.228192   17.436760   20.920196 C.3        1 MOL1         0.1018
      34    H16     14.319769   16.856612   20.711202 H          1 MOL1         0.0783
      35    C11     15.480543   18.457847   19.772768 C.3        1 MOL1         0.1043
      36    H17     16.510270   18.824332   19.859305 H          1 MOL1         0.0783
      37    O9      14.574583   19.583348   19.882434 O.3        1 MOL1        -0.3740
      38    C12     15.327369   17.848548   18.358283 C.3        1 MOL1         0.0138
      39    H18     16.175067   17.175937   18.172920 H          1 MOL1         0.0794
      40    H19     15.388540   18.658897   17.619607 H          1 MOL1         0.0794
      41    O10     14.095742   17.130865   18.208549 O.3        1 MOL1        -0.5486
      42    H20     14.045517   16.816782   17.279424 H          1 MOL1         0.3769
      43    C13     18.517016   23.856977   22.054294 C.3        1 MOL1         0.2972
      44    H21     18.980376   24.833142   22.248702 H          1 MOL1         0.0751
      45    O11     19.498579   22.867749   21.694022 O.3        1 MOL1        -0.3740
      46    C14     17.778575   23.363950   23.320399 C.3        1 MOL1         0.1003
      47    H22     16.994140   24.096536   23.551120 H          1 MOL1         0.0783
      48    O12     18.684759   23.269885   24.432220 O.3        1 MOL1        -0.5519
      49    H23     19.573111   23.553982   24.106452 H          1 MOL1         0.3769
      50    C15     17.104802   21.997819   23.057515 C.3        1 MOL1         0.1053
      51    H24     17.894453   21.256493   22.895782 H          1 MOL1         0.0783
      52    O13     16.331423   21.626407   24.201036 O.3        1 MOL1        -0.5519
      53    H25     16.897787   21.860600   24.970478 H          1 MOL1         0.3769
      54    C16     16.216950   22.034699   21.789181 C.3        1 MOL1         0.1018
      55    H26     15.288910   22.570403   22.029217 H          1 MOL1         0.0783
      56    C17     16.926728   22.708132   20.580131 C.3        1 MOL1         0.1043
      57    H27     17.694718   22.013709   20.218604 H          1 MOL1         0.0783
      58    O14     17.563455   23.950972   20.975381 O.3        1 MOL1        -0.3740
      59    C18     15.976227   22.999050   19.394324 C.3        1 MOL1         0.0138
      60    H28     15.684425   22.043098   18.938593 H          1 MOL1         0.0794
      61    H29     16.526618   23.568653   18.633418 H          1 MOL1         0.0794
      62    O15     14.806413   23.716942   19.806336 O.3        1 MOL1        -0.5486
      63    H30     14.282356   23.919672   19.000868 H          1 MOL1         0.3769
      64    C19     23.535995   22.640996   20.696932 C.3        1 MOL1         0.2972
      65    H31     24.541523   22.833983   20.301135 H          1 MOL1         0.0751
      66    O16     23.405240   21.295820   21.201248 O.3        1 MOL1        -0.3740
      67    C20     23.203713   23.609103   21.863804 C.3        1 MOL1         0.1003
      68    H32     23.250994   24.632308   21.468992 H          1 MOL1         0.0783
      69    O17     24.151070   23.471002   22.935156 O.3        1 MOL1        -0.5519
      70    H33     24.270385   22.502153   23.105197 H          1 MOL1         0.3769
      71    C21     21.765066   23.358898   22.380987 C.3        1 MOL1         0.1053
      72    H34     21.743431   22.359069   22.830929 H          1 MOL1         0.0783
      73    O18     21.420646   24.336962   23.367958 O.3        1 MOL1        -0.5519
      74    H35     22.219983   24.418800   23.935365 H          1 MOL1         0.3769
      75    C22     20.747516   23.391113   21.212428 C.3        1 MOL1         0.1018
      76    H36     20.648492   24.425119   20.856084 H          1 MOL1         0.0783
      77    C23     21.189359   22.490984   20.030224 C.3        1 MOL1         0.1043
      78    H37     21.161017   21.448803   20.365624 H          1 MOL1         0.0783
      79    O19     22.545903   22.832405   19.660484 O.3        1 MOL1        -0.3740
      80    C24     20.277708   22.584782   18.778689 C.3        1 MOL1         0.0138
      81    H38     19.480652   21.836871   18.875937 H          1 MOL1         0.0794
      82    H39     20.866084   22.307542   17.893867 H          1 MOL1         0.0794
      83    O20     19.695067   23.881933   18.597135 O.3        1 MOL1        -0.5486
      84    H40     19.054478   24.022991   19.331864 H          1 MOL1         0.3769
      85    C25     25.250794   17.628618   21.381873 C.3        1 MOL1         0.2972
      86    H41     25.911891   16.752502   21.364586 H          1 MOL1         0.0751
      87    O21     23.859136   17.246628   21.450501 O.3        1 MOL1        -0.3740
      88    C26     25.585339   18.564905   22.572155 C.3        1 MOL1         0.1003
      89    H42     26.596319   18.957643   22.401646 H          1 MOL1         0.0783
      90    O22     25.568368   17.869014   23.826459 O.3        1 MOL1        -0.5519
      91    H43     24.667682   17.470628   23.929642 H          1 MOL1         0.3769
      92    C27     24.607506   19.764138   22.589690 C.3        1 MOL1         0.1053
      93    H44     23.596778   19.381173   22.784315 H          1 MOL1         0.0783
      94    O23     24.980620   20.678201   23.625862 O.3        1 MOL1        -0.5519
      95    H45     25.180835   20.113302   24.405397 H          1 MOL1         0.3769
      96    C28     24.602529   20.496914   21.223941 C.3        1 MOL1         0.1018
      97    H46     25.509003   21.114028   21.167188 H          1 MOL1         0.0783
      98    C29     24.537665   19.530654   20.003757 C.3        1 MOL1         0.1043
      99    H47     23.513390   19.146854   19.924774 H          1 MOL1         0.0783
     100    O24     25.440248   18.410171   20.183682 O.3        1 MOL1        -0.3740
     101    C30     24.870835   20.215222   18.656286 C.3        1 MOL1         0.0138
     102    H48     24.041288   20.883733   18.389584 H          1 MOL1         0.0794
     103    H49     24.930145   19.443684   17.876975 H          1 MOL1         0.0794
     104    O25     26.094516   20.959108   18.714808 O.3        1 MOL1        -0.5486
     105    H50     26.275029   21.306593   17.814066 H          1 MOL1         0.3769
     106    C31     21.229418   14.124373   22.054002 C.3        1 MOL1         0.2972
     107    H51     20.733287   13.171142   22.275198 H          1 MOL1         0.0751
     108    O26     20.339472   15.050317   21.399355 O.3        1 MOL1        -0.3740
     109    C32     21.734697   14.783176   23.360232 C.3        1 MOL1         0.1003
     110    H52     22.445627   14.086630   23.823767 H          1 MOL1         0.0783
     111    O27     20.648230   15.038935   24.269399 O.3        1 MOL1        -0.5519
     112    H53     19.940156   14.383020   24.054489 H          1 MOL1         0.3769
     113    C33     22.472806   16.104035   23.047719 C.3        1 MOL1         0.1053
     114    H54     21.731492   16.807812   22.656741 H          1 MOL1         0.0783
     115    O28     23.034632   16.615184   24.259076 O.3        1 MOL1        -0.5519
     116    H55     22.437184   16.295491   24.969370 H          1 MOL1         0.3769
     117    C34     23.566495   15.930144   21.964049 C.3        1 MOL1         0.1018
     118    H56     24.445619   15.458652   22.423093 H          1 MOL1         0.0783
     119    C35     23.075028   15.087401   20.752459 C.3        1 MOL1         0.1043
     120    H57     22.385781   15.707694   20.165587 H          1 MOL1         0.0783
     121    O29     22.370547   13.901974   21.199147 O.3        1 MOL1        -0.3740
     122    C36     24.218829   14.653951   19.804630 C.3        1 MOL1         0.0138
     123    H58     24.589924   15.543762   19.278001 H          1 MOL1         0.0794
     124    H59     23.807806   13.973590   19.046801 H          1 MOL1         0.0794
     125    O30     25.295767   14.023625   20.509672 O.3        1 MOL1        -0.5486
     126    H60     25.947558   13.714502   19.843075 H          1 MOL1         0.3769
     127    N1      20.115605   17.817047   25.058108 N.4        1 MOL1        -0.5937
     128    H1      20.823003   18.012341   25.770819 H          1 MOL1         0.3684
     129    H2      20.240937   16.835956   24.760343 H          1 MOL1         0.3684
     130    H3      19.198646   17.886522   25.505310 H          1 MOL1         0.3684
     131    C1      20.237844   18.762853   23.895521 C.3        1 MOL1         0.1270
     132    H4      21.240131   18.617734   23.482128 H          1 MOL1         0.0960
     133    C2      20.120171   20.215295   24.381315 C.3        1 MOL1        -0.2382
     134    H5      20.238255   20.920288   23.553842 H          1 MOL1         0.1009
     135    H6      20.899084   20.442434   25.119292 H          1 MOL1         0.1009
     136    H7      19.145456   20.401481   24.848627 H          1 MOL1         0.1009
     137    C3      19.199724   18.430463   22.799564 C.3        1 MOL1        -0.1392
     138    H8      19.206926   17.348353   22.629156 H          1 MOL1         0.0998
     139    H9      18.196899   18.677129   23.168732 H          1 MOL1         0.0998
     140    C4      19.430695   19.126747   21.435672 C.3        1 MOL1        -0.1302
     141    H10     19.381879   20.215964   21.545086 H          1 MOL1         0.0998
     142    H11     18.608092   18.855772   20.761755 H          1 MOL1         0.0998
     143    C5      20.768988   18.729205   20.776556 C.3        1 MOL1        -0.2317
     144    H12     20.845915   17.642018   20.657594 H          1 MOL1         0.1009
     145    H13     21.622475   19.068732   21.375825 H          1 MOL1         0.1009
     146    H14     20.860140   19.178389   19.779797 H          1 MOL1         0.1009
@<TRIPOS>BOND
    1     1     2    1
    2     1     3    1
    3     1     4    1
    4     4     5    1
    5     4     6    1
    6     6     7    1
    7     4     8    1
    8     8     9    1
    9     8    10    1
   10    10    11    1
   11     8    12    1
   12    12    13    1
   13    12    14    1
   14    14    15    1
   15     1    16    1
   16    14    16    1
   17    14    17    1
   18    17    18    1
   19    17    19    1
   20    17    20    1
   21    20    21    1
   22    22    23    1
   23    22    24    1
   24    22    25    1
   25    25    26    1
   26    25    27    1
   27    27    28    1
   28    25    29    1
   29    29    30    1
   30    29    31    1
   31    31    32    1
   32     3    33    1
   33    29    33    1
   34    33    34    1
   35    33    35    1
   36    35    36    1
   37    22    37    1
   38    35    37    1
   39    35    38    1
   40    38    39    1
   41    38    40    1
   42    38    41    1
   43    41    42    1
   44    43    44    1
   45    43    45    1
   46    43    46    1
   47    46    47    1
   48    46    48    1
   49    48    49    1
   50    46    50    1
   51    50    51    1
   52    50    52    1
   53    52    53    1
   54    24    54    1
   55    50    54    1
   56    54    55    1
   57    54    56    1
   58    56    57    1
   59    43    58    1
   60    56    58    1
   61    56    59    1
   62    59    60    1
   63    59    61    1
   64    59    62    1
   65    62    63    1
   66    64    65    1
   67    64    66    1
   68    64    67    1
   69    67    68    1
   70    67    69    1
   71    69    70    1
   72    67    71    1
   73    71    72    1
   74    71    73    1
   75    73    74    1
   76    45    75    1
   77    71    75    1
   78    75    76    1
   79    75    77    1
   80    77    78    1
   81    64    79    1
   82    77    79    1
   83    77    80    1
   84    80    81    1
   85    80    82    1
   86    80    83    1
   87    83    84    1
   88    85    86    1
   89    85    87    1
   90    85    88    1
   91    88    89    1
   92    88    90    1
   93    90    91    1
   94    88    92    1
   95    92    93    1
   96    92    94    1
   97    94    95    1
   98    66    96    1
   99    92    96    1
  100    96    97    1
  101    96    98    1
  102    98    99    1
  103    85   100    1
  104    98   100    1
  105    98   101    1
  106   101   102    1
  107   101   103    1
  108   101   104    1
  109   104   105    1
  110   106   107    1
  111    12   108    1
  112   106   108    1
  113   106   109    1
  114   109   110    1
  115   109   111    1
  116   111   112    1
  117   109   113    1
  118   113   114    1
  119   113   115    1
  120   115   116    1
  121    87   117    1
  122   113   117    1
  123   117   118    1
  124   117   119    1
  125   119   120    1
  126   106   121    1
  127   119   121    1
  128   119   122    1
  129   122   123    1
  130   122   124    1
  131   122   125    1
  132   125   126    1
  133   127   128    1
  134   127   129    1
  135   127   130    1
  136   127   131    1
  137   131   132    1
  138   131   133    1
  139   133   134    1
  140   133   135    1
  141   133   136    1
  142   131   137    1
  143   137   138    1
  144   137   139    1
  145   137   140    1
  146   140   141    1
  147   140   142    1
  148   140   143    1
  149   143   144    1
  150   143   145    1
  151   143   146    1
@<TRIPOS>SUBSTRUCTURE
       1 MOL1            1 RESIDUE      1      MOL     
       2 MOL1          146 RESIDUE      1      MOL     
@<SCITEGIC>MOL_PROPERTY
feprocess Rank
SciTegic.value.IntegerValue
1

@<SCITEGIC>MOL_PROPERTY
Conf_Id
SciTegic.value.IntegerValue
568

@<SCITEGIC>MOL_PROPERTY
Probability
SciTegic.value.DoubleValue
74.38

@<SCITEGIC>MOL_PROPERTY
G
SciTegic.value.DoubleValue
534.374

@<SCITEGIC>MOL_PROPERTY
E
SciTegic.value.DoubleValue
340.922

@<SCITEGIC>MOL_PROPERTY
-TS
SciTegic.value.DoubleValue
193.453

@<SCITEGIC>MOL_PROPERTY
U+W
SciTegic.value.DoubleValue
212.151

@<SCITEGIC>MOL_PROPERTY
U
SciTegic.value.DoubleValue
301.634

@<SCITEGIC>MOL_PROPERTY
W
SciTegic.value.DoubleValue
-89.490

@<SCITEGIC>MOL_PROPERTY
W(PB)
SciTegic.value.DoubleValue
-95.537

@<SCITEGIC>MOL_PROPERTY
W(SA)
SciTegic.value.DoubleValue
6.047

@<SCITEGIC>MOL_PROPERTY
Valence
SciTegic.value.DoubleValue
147.581

@<SCITEGIC>MOL_PROPERTY
Coulomb
SciTegic.value.DoubleValue
178.231

@<SCITEGIC>MOL_PROPERTY
VdW
SciTegic.value.DoubleValue
-24.177

@<SCITEGIC>MOL_PROPERTY
VdW6
SciTegic.value.DoubleValue
-177.332

@<SCITEGIC>MOL_PROPERTY
VdW12
SciTegic.value.DoubleValue
153.155

@<SCITEGIC>MOL_PROPERTY
Bond
SciTegic.value.DoubleValue
4.598

@<SCITEGIC>MOL_PROPERTY
Angle
SciTegic.value.DoubleValue
11.810

@<SCITEGIC>MOL_PROPERTY
Pdih
SciTegic.value.DoubleValue
131.172

@<SCITEGIC>MOL_PROPERTY
Idih
SciTegic.value.DoubleValue
0.000

@<SCITEGIC>MOL_PROPERTY
Tether
SciTegic.value.DoubleValue
0.000

@<TRIPOS>MOLECULE
CD_guest-s10_fast_vm2_rndm.mol2 : feprocess host+ligand conformer 2
         146         151           2
SMALL
USER_CHARGES
 
@<TRIPOS>ATOM
       1    C1      16.213915   15.157668   20.589676 C.3        1 MOL1         0.2972
       2    H1      15.167248   15.035243   20.282330 H          1 MOL1         0.0751
       3    O1      16.504239   16.519383   20.967387 O.3        1 MOL1        -0.3740
       4    C2      16.568748   14.220881   21.774370 C.3        1 MOL1         0.1003
       5    H2      16.452864   13.189420   21.416679 H          1 MOL1         0.0783
       6    O2      15.695510   14.422718   22.895338 O.3        1 MOL1        -0.5519
       7    H3      15.768333   15.375208   23.157964 H          1 MOL1         0.3769
       8    C3      18.047067   14.415715   22.193149 C.3        1 MOL1         0.1053
       9    H4      18.154664   15.429528   22.602053 H          1 MOL1         0.0783
      10    O3      18.383293   13.453402   23.198180 O.3        1 MOL1        -0.5519
      11    H5      17.597835   13.419852   23.790340 H          1 MOL1         0.3769
      12    C4      18.997206   14.277669   20.972232 C.3        1 MOL1         0.1018
      13    H6      19.088252   13.215974   20.709652 H          1 MOL1         0.0783
      14    C5      18.501045   15.066537   19.728364 C.3        1 MOL1         0.1043
      15    H7      18.638099   16.136812   19.923268 H          1 MOL1         0.0783
      16    O4      17.094272   14.806887   19.500485 O.3        1 MOL1        -0.3740
      17    C6      19.287493   14.749034   18.431932 C.3        1 MOL1         0.0138
      18    H8      20.267301   15.241112   18.488822 H          1 MOL1         0.0794
      19    H9      18.752150   15.194344   17.582876 H          1 MOL1         0.0794
      20    O5      19.466872   13.343844   18.217345 O.3        1 MOL1        -0.5486
      21    H10     20.161252   13.037477   18.839943 H          1 MOL1         0.3769
      22    C7      14.923949   20.236886   21.689872 C.3        1 MOL1         0.2972
      23    H11     14.309195   21.122922   21.894574 H          1 MOL1         0.0751
      24    O6      16.272275   20.595452   21.334268 O.3        1 MOL1        -0.3740
      25    C8      14.979927   19.329026   22.940775 C.3        1 MOL1         0.1003
      26    H12     13.951630   19.015815   23.164186 H          1 MOL1         0.0783
      27    O7      15.521351   20.042384   24.067314 O.3        1 MOL1        -0.5519
      28    H13     15.452056   21.006008   23.853641 H          1 MOL1         0.3769
      29    C9      15.826679   18.067500   22.655924 C.3        1 MOL1         0.1053
      30    H14     16.866080   18.387854   22.522622 H          1 MOL1         0.0783
      31    O8      15.736977   17.178848   23.773505 O.3        1 MOL1        -0.5519
      32    H15     15.640600   17.761165   24.557111 H          1 MOL1         0.3769
      33    C10     15.389962   17.345289   21.356688 C.3        1 MOL1         0.1018
      34    H16     14.487992   16.755114   21.566720 H          1 MOL1         0.0783
      35    C11     15.134245   18.323175   20.173289 C.3        1 MOL1         0.1043
      36    H17     16.109898   18.669547   19.810093 H          1 MOL1         0.0783
      37    O9      14.361236   19.471863   20.604314 O.3        1 MOL1        -0.3740
      38    C12     14.411332   17.664698   18.974080 C.3        1 MOL1         0.0138
      39    H18     15.107226   16.967438   18.488041 H          1 MOL1         0.0794
      40    H19     14.166253   18.444698   18.240731 H          1 MOL1         0.0794
      41    O10     13.225781   16.966661   19.375021 O.3        1 MOL1        -0.5486
      42    H20     12.780752   16.643250   18.561319 H          1 MOL1         0.3769
      43    C13     18.570254   24.017982   20.789773 C.3        1 MOL1         0.2972
      44    H21     18.962907   24.999713   20.494661 H          1 MOL1         0.0751
      45    O11     19.599025   23.170650   21.335194 O.3        1 MOL1        -0.3740
      46    C14     17.457615   24.157153   21.863059 C.3        1 MOL1         0.1003
      47    H22     16.647413   24.752573   21.422478 H          1 MOL1         0.0783
      48    O12     17.950848   24.823371   23.036788 O.3        1 MOL1        -0.5519
      49    H23     18.779766   24.358505   23.316682 H          1 MOL1         0.3769
      50    C15     16.884738   22.767124   22.238330 C.3        1 MOL1         0.1053
      51    H24     17.678047   22.212292   22.751992 H          1 MOL1         0.0783
      52    O13     15.767465   22.927252   23.120098 O.3        1 MOL1        -0.5519
      53    H25     16.041864   23.628642   23.753089 H          1 MOL1         0.3769
      54    C16     16.472114   21.971624   20.970209 C.3        1 MOL1         0.1018
      55    H26     15.559849   22.417483   20.552807 H          1 MOL1         0.0783
      56    C17     17.579399   21.975984   19.884235 C.3        1 MOL1         0.1043
      57    H27     18.429239   21.388801   20.255943 H          1 MOL1         0.0783
      58    O14     18.004120   23.339626   19.645969 O.3        1 MOL1        -0.3740
      59    C18     17.150185   21.331587   18.540674 C.3        1 MOL1         0.0138
      60    H28     17.297351   20.246464   18.616291 H          1 MOL1         0.0794
      61    H29     17.821424   21.690429   17.749135 H          1 MOL1         0.0794
      62    O15     15.786602   21.604088   18.193977 O.3        1 MOL1        -0.5486
      63    H30     15.220189   21.111379   18.828739 H          1 MOL1         0.3769
      64    C19     23.591929   22.786151   22.049886 C.3        1 MOL1         0.2972
      65    H31     24.668341   22.871275   22.248230 H          1 MOL1         0.0751
      66    O16     23.202786   21.422527   21.786993 O.3        1 MOL1        -0.3740
      67    C20     22.791894   23.289465   23.273249 C.3        1 MOL1         0.1003
      68    H32     23.023687   24.353333   23.413442 H          1 MOL1         0.0783
      69    O17     23.162738   22.556015   24.451998 O.3        1 MOL1        -0.5519
      70    H33     23.630071   21.739478   24.147918 H          1 MOL1         0.3769
      71    C21     21.277192   23.151880   23.010062 C.3        1 MOL1         0.1053
      72    H34     21.055823   22.081194   22.958243 H          1 MOL1         0.0783
      73    O18     20.538294   23.739407   24.085521 O.3        1 MOL1        -0.5519
      74    H35     20.993857   23.432728   24.901262 H          1 MOL1         0.3769
      75    C22     20.854705   23.790416   21.664135 C.3        1 MOL1         0.1018
      76    H36     20.760190   24.875548   21.803768 H          1 MOL1         0.0783
      77    C23     21.829259   23.470495   20.492611 C.3        1 MOL1         0.1043
      78    H37     21.638106   22.435735   20.184061 H          1 MOL1         0.0783
      79    O19     23.214486   23.585241   20.910346 O.3        1 MOL1        -0.3740
      80    C24     21.617689   24.361316   19.245309 C.3        1 MOL1         0.0138
      81    H38     20.670454   24.075958   18.768100 H          1 MOL1         0.0794
      82    H39     22.420188   24.152967   18.524856 H          1 MOL1         0.0794
      83    O20     21.594822   25.754992   19.576625 O.3        1 MOL1        -0.5486
      84    H40     21.539228   26.260496   18.736310 H          1 MOL1         0.3769
      85    C25     24.893292   17.725149   20.853595 C.3        1 MOL1         0.2972
      86    H41     25.552135   16.919112   20.505784 H          1 MOL1         0.0751
      87    O21     23.570811   17.232549   21.152292 O.3        1 MOL1        -0.3740
      88    C26     25.483944   18.436871   22.104413 C.3        1 MOL1         0.1003
      89    H42     26.443268   18.875221   21.799874 H          1 MOL1         0.0783
      90    O22     25.719726   17.525376   23.187497 O.3        1 MOL1        -0.5519
      91    H43     24.841344   17.150205   23.449194 H          1 MOL1         0.3769
      92    C27     24.558817   19.592759   22.557919 C.3        1 MOL1         0.1053
      93    H44     23.608983   19.159162   22.898455 H          1 MOL1         0.0783
      94    O23     25.171274   20.317273   23.630005 O.3        1 MOL1        -0.5519
      95    H45     25.543510   19.629383   24.226035 H          1 MOL1         0.3769
      96    C28     24.266164   20.547503   21.374887 C.3        1 MOL1         0.1018
      97    H46     25.184907   21.099830   21.136686 H          1 MOL1         0.0783
      98    C29     23.796018   19.783608   20.107069 C.3        1 MOL1         0.1043
      99    H47     22.811340   19.343987   20.312703 H          1 MOL1         0.0783
     100    O24     24.747047   18.726729   19.820865 O.3        1 MOL1        -0.3740
     101    C30     23.636929   20.666776   18.841146 C.3        1 MOL1         0.0138
     102    H48     22.604333   21.034650   18.801349 H          1 MOL1         0.0794
     103    H49     23.779249   20.034746   17.954392 H          1 MOL1         0.0794
     104    O25     24.542751   21.776899   18.802706 O.3        1 MOL1        -0.5486
     105    H50     24.237443   22.427822   19.476905 H          1 MOL1         0.3769
     106    C31     21.242979   13.938426   21.878209 C.3        1 MOL1         0.2972
     107    H51     20.800464   12.961210   22.110855 H          1 MOL1         0.0751
     108    O26     20.269750   14.848057   21.328004 O.3        1 MOL1        -0.3740
     109    C32     21.851467   14.568384   23.155031 C.3        1 MOL1         0.1003
     110    H52     22.640043   13.891000   23.508008 H          1 MOL1         0.0783
     111    O27     20.865464   14.729849   24.188505 O.3        1 MOL1        -0.5519
     112    H53     20.046928   14.264861   23.887576 H          1 MOL1         0.3769
     113    C33     22.493900   15.935310   22.835983 C.3        1 MOL1         0.1053
     114    H54     21.682786   16.629123   22.584646 H          1 MOL1         0.0783
     115    O28     23.186186   16.402559   23.997515 O.3        1 MOL1        -0.5519
     116    H55     22.588218   16.179137   24.745902 H          1 MOL1         0.3769
     117    C34     23.456361   15.875142   21.623707 C.3        1 MOL1         0.1018
     118    H56     24.419896   15.467182   21.956516 H          1 MOL1         0.0783
     119    C35     22.897318   15.033228   20.439570 C.3        1 MOL1         0.1043
     120    H57     22.120252   15.627945   19.942433 H          1 MOL1         0.0783
     121    O29     22.308350   13.795754   20.916118 O.3        1 MOL1        -0.3740
     122    C36     23.959606   14.691759   19.367464 C.3        1 MOL1         0.0138
     123    H58     24.213088   15.611433   18.823067 H          1 MOL1         0.0794
     124    H59     23.514689   13.996553   18.642908 H          1 MOL1         0.0794
     125    O30     25.144315   14.124180   19.939951 O.3        1 MOL1        -0.5486
     126    H60     25.734362   13.857589   19.201291 H          1 MOL1         0.3769
     127    N1      17.917433   19.126248   25.452561 N.4        1 MOL1        -0.5937
     128    H1      18.257921   19.898253   26.030067 H          1 MOL1         0.3684
     129    H2      17.646154   18.366449   26.081387 H          1 MOL1         0.3684
     130    H3      17.064043   19.457141   24.975205 H          1 MOL1         0.3684
     131    C1      18.957667   18.678056   24.464118 C.3        1 MOL1         0.1270
     132    H4      18.524954   17.833977   23.918076 H          1 MOL1         0.0960
     133    C2      20.212314   18.190439   25.205732 C.3        1 MOL1        -0.2382
     134    H5      20.699494   19.009630   25.748820 H          1 MOL1         0.1009
     135    H6      20.937757   17.764605   24.508283 H          1 MOL1         0.1009
     136    H7      19.956056   17.403413   25.925627 H          1 MOL1         0.1009
     137    C3      19.278388   19.804509   23.454683 C.3        1 MOL1        -0.1392
     138    H8      18.336320   20.154743   23.020096 H          1 MOL1         0.0998
     139    H9      19.701051   20.658549   23.998162 H          1 MOL1         0.0998
     140    C4      20.225401   19.411842   22.291799 C.3        1 MOL1        -0.1302
     141    H10     21.210763   19.123458   22.680359 H          1 MOL1         0.0998
     142    H11     20.399096   20.293737   21.660022 H          1 MOL1         0.0998
     143    C5      19.653743   18.280945   21.410546 C.3        1 MOL1        -0.2317
     144    H12     19.476579   17.369855   21.994172 H          1 MOL1         0.1009
     145    H13     18.703427   18.581081   20.950121 H          1 MOL1         0.1009
     146    H14     20.355221   18.027469   20.605216 H          1 MOL1         0.1009
@<TRIPOS>BOND
    1     1     2    1
    2     1     3    1
    3     1     4    1
    4     4     5    1
    5     4     6    1
    6     6     7    1
    7     4     8    1
    8     8     9    1
    9     8    10    1
   10    10    11    1
   11     8    12    1
   12    12    13    1
   13    12    14    1
   14    14    15    1
   15     1    16    1
   16    14    16    1
   17    14    17    1
   18    17    18    1
   19    17    19    1
   20    17    20    1
   21    20    21    1
   22    22    23    1
   23    22    24    1
   24    22    25    1
   25    25    26    1
   26    25    27    1
   27    27    28    1
   28    25    29    1
   29    29    30    1
   30    29    31    1
   31    31    32    1
   32     3    33    1
   33    29    33    1
   34    33    34    1
   35    33    35    1
   36    35    36    1
   37    22    37    1
   38    35    37    1
   39    35    38    1
   40    38    39    1
   41    38    40    1
   42    38    41    1
   43    41    42    1
   44    43    44    1
   45    43    45    1
   46    43    46    1
   47    46    47    1
   48    46    48    1
   49    48    49    1
   50    46    50    1
   51    50    51    1
   52    50    52    1
   53    52    53    1
   54    24    54    1
   55    50    54    1
   56    54    55    1
   57    54    56    1
   58    56    57    1
   59    43    58    1
   60    56    58    1
   61    56    59    1
   62    59    60    1
   63    59    61    1
   64    59    62    1
   65    62    63    1
   66    64    65    1
   67    64    66    1
   68    64    67    1
   69    67    68    1
   70    67    69    1
   71    69    70    1
   72    67    71    1
   73    71    72    1
   74    71    73    1
   75    73    74    1
   76    45    75    1
   77    71    75    1
   78    75    76    1
   79    75    77    1
   80    77    78    1
   81    64    79    1
   82    77    79    1
   83    77    80    1
   84    80    81    1
   85    80    82    1
   86    80    83    1
   87    83    84    1
   88    85    86    1
   89    85    87    1
   90    85    88    1
   91    88    89    1
   92    88    90    1
   93    90    91    1
   94    88    92    1
   95    92    93    1
   96    92    94    1
   97    94    95    1
   98    66    96    1
   99    92    96    1
  100    96    97    1
  101    96    98    1
  102    98    99    1
  103    85   100    1
  104    98   100    1
  105    98   101    1
  106   101   102    1
  107   101   103    1
  108   101   104    1
  109   104   105    1
  110   106   107    1
  111    12   108    1
  112   106   108    1
  113   106   109    1
  114   109   110    1
  115   109   111    1
  116   111   112    1
  117   109   113    1
  118   113   114    1
  119   113   115    1
  120   115   116    1
  121    87   117    1
  122   113   117    1
  123   117   118    1
  124   117   119    1
  125   119   120    1
  126   106   121    1
  127   119   121    1
  128   119   122    1
  129   122   123    1
  130   122   124    1
  131   122   125    1
  132   125   126    1
  133   127   128    1
  134   127   129    1
  135   127   130    1
  136   127   131    1
  137   131   132    1
  138   131   133    1
  139   133   134    1
  140   133   135    1
  141   133   136    1
  142   131   137    1
  143   137   138    1
  144   137   139    1
  145   137   140    1
  146   140   141    1
  147   140   142    1
  148   140   143    1
  149   143   144    1
  150   143   145    1
  151   143   146    1
@<TRIPOS>SUBSTRUCTURE
       1 MOL1            1 RESIDUE      1      MOL     
       2 MOL1          146 RESIDUE      1      MOL     
@<SCITEGIC>MOL_PROPERTY
feprocess Rank
SciTegic.value.IntegerValue
2

@<SCITEGIC>MOL_PROPERTY
Conf_Id
SciTegic.value.IntegerValue
84

@<SCITEGIC>MOL_PROPERTY
Probability
SciTegic.value.DoubleValue
16.92

@<SCITEGIC>MOL_PROPERTY
G
SciTegic.value.DoubleValue
535.257

@<SCITEGIC>MOL_PROPERTY
E
SciTegic.value.DoubleValue
342.746

@<SCITEGIC>MOL_PROPERTY
-TS
SciTegic.value.DoubleValue
192.511

@<SCITEGIC>MOL_PROPERTY
U+W
SciTegic.value.DoubleValue
213.975

@<SCITEGIC>MOL_PROPERTY
U
SciTegic.value.DoubleValue
302.968

@<SCITEGIC>MOL_PROPERTY
W
SciTegic.value.DoubleValue
-88.994

@<SCITEGIC>MOL_PROPERTY
W(PB)
SciTegic.value.DoubleValue
-95.085

@<SCITEGIC>MOL_PROPERTY
W(SA)
SciTegic.value.DoubleValue
6.091

@<SCITEGIC>MOL_PROPERTY
Valence
SciTegic.value.DoubleValue
148.013

@<SCITEGIC>MOL_PROPERTY
Coulomb
SciTegic.value.DoubleValue
177.246

@<SCITEGIC>MOL_PROPERTY
VdW
SciTegic.value.DoubleValue
-22.291

@<SCITEGIC>MOL_PROPERTY
VdW6
SciTegic.value.DoubleValue
-175.390

@<SCITEGIC>MOL_PROPERTY
VdW12
SciTegic.value.DoubleValue
153.099

@<SCITEGIC>MOL_PROPERTY
Bond
SciTegic.value.DoubleValue
4.646

@<SCITEGIC>MOL_PROPERTY
Angle
SciTegic.value.DoubleValue
12.664

@<SCITEGIC>MOL_PROPERTY
Pdih
SciTegic.value.DoubleValue
130.703

@<SCITEGIC>MOL_PROPERTY
Idih
SciTegic.value.DoubleValue
0.000

@<SCITEGIC>MOL_PROPERTY
Tether
SciTegic.value.DoubleValue
0.000

@<TRIPOS>MOLECULE
CD_guest-s10_fast_vm2_rndm.mol2 : feprocess host+ligand conformer 3
         146         151           2
SMALL
USER_CHARGES
 
@<TRIPOS>ATOM
       1    C1      16.133709   15.111811   20.551458 C.3        1 MOL1         0.2972
       2    H1      15.068741   15.015375   20.303889 H          1 MOL1         0.0751
       3    O1      16.488468   16.486552   20.821539 O.3        1 MOL1        -0.3740
       4    C2      16.517800   14.203527   21.752141 C.3        1 MOL1         0.1003
       5    H2      16.372159   13.164449   21.428885 H          1 MOL1         0.0783
       6    O2      15.698336   14.442722   22.905231 O.3        1 MOL1        -0.5519
       7    H3      15.905727   15.358716   23.217846 H          1 MOL1         0.3769
       8    C3      18.014484   14.388554   22.093270 C.3        1 MOL1         0.1053
       9    H4      18.161637   15.424286   22.422011 H          1 MOL1         0.0783
      10    O3      18.394458   13.491516   23.142132 O.3        1 MOL1        -0.5519
      11    H5      17.656710   13.525524   23.790873 H          1 MOL1         0.3769
      12    C4      18.902491   14.145771   20.849370 C.3        1 MOL1         0.1018
      13    H6      18.955019   13.063147   20.674737 H          1 MOL1         0.0783
      14    C5      18.372896   14.862635   19.573299 C.3        1 MOL1         0.1043
      15    H7      18.583318   15.935493   19.672106 H          1 MOL1         0.0783
      16    O4      16.940025   14.672188   19.437994 O.3        1 MOL1        -0.3740
      17    C6      19.050781   14.377872   18.269263 C.3        1 MOL1         0.0138
      18    H8      20.087073   14.739765   18.257859 H          1 MOL1         0.0794
      19    H9      18.536574   14.838501   17.415183 H          1 MOL1         0.0794
      20    O5      19.033355   12.949619   18.149327 O.3        1 MOL1        -0.5486
      21    H10     19.444560   12.718435   17.288001 H          1 MOL1         0.3769
      22    C7      15.092619   20.177471   22.071329 C.3        1 MOL1         0.2972
      23    H11     14.507826   21.018864   22.464262 H          1 MOL1         0.0751
      24    O6      16.287773   20.629589   21.402724 O.3        1 MOL1        -0.3740
      25    C8      15.484705   19.213074   23.220477 C.3        1 MOL1         0.1003
      26    H12     14.551134   18.865415   23.681914 H          1 MOL1         0.0783
      27    O7      16.295005   19.859672   24.216462 O.3        1 MOL1        -0.5519
      28    H13     16.123034   20.829483   24.144476 H          1 MOL1         0.3769
      29    C9      16.243249   17.984771   22.677869 C.3        1 MOL1         0.1053
      30    H14     17.211505   18.334161   22.305951 H          1 MOL1         0.0783
      31    O8      16.439680   17.068430   23.757012 O.3        1 MOL1        -0.5519
      32    H15     16.668692   17.642473   24.522523 H          1 MOL1         0.3769
      33    C10     15.508548   17.303845   21.497000 C.3        1 MOL1         0.1018
      34    H16     14.672030   16.711638   21.890637 H          1 MOL1         0.0783
      35    C11     14.985516   18.333400   20.455609 C.3        1 MOL1         0.1043
      36    H17     15.849386   18.729192   19.905670 H          1 MOL1         0.0783
      37    O9      14.306305   19.429480   21.119709 O.3        1 MOL1        -0.3740
      38    C12     14.022548   17.717160   19.412665 C.3        1 MOL1         0.0138
      39    H18     14.603493   17.066571   18.744997 H          1 MOL1         0.0794
      40    H19     13.606552   18.526993   18.798421 H          1 MOL1         0.0794
      41    O10     12.968436   16.964631   20.026340 O.3        1 MOL1        -0.5486
      42    H20     12.357352   16.672769   19.314887 H          1 MOL1         0.3769
      43    C13     18.522651   24.127487   21.092858 C.3        1 MOL1         0.2972
      44    H21     18.866159   25.156679   20.928916 H          1 MOL1         0.0751
      45    O11     19.619337   23.228873   21.347210 O.3        1 MOL1        -0.3740
      46    C14     17.588155   24.077687   22.323938 C.3        1 MOL1         0.1003
      47    H22     16.732561   24.733109   22.114895 H          1 MOL1         0.0783
      48    O12     18.272958   24.551311   23.495105 O.3        1 MOL1        -0.5519
      49    H23     19.226752   24.307104   23.393599 H          1 MOL1         0.3769
      50    C15     17.048183   22.646245   22.556476 C.3        1 MOL1         0.1053
      51    H24     17.889257   22.008395   22.860515 H          1 MOL1         0.0783
      52    O13     16.074234   22.699073   23.604607 O.3        1 MOL1        -0.5519
      53    H25     16.458694   23.313065   24.271619 H          1 MOL1         0.3769
      54    C16     16.435588   22.056900   21.254641 C.3        1 MOL1         0.1018
      55    H26     15.469537   22.540607   21.061329 H          1 MOL1         0.0783
      56    C17     17.361766   22.264170   20.024677 C.3        1 MOL1         0.1043
      57    H27     18.242016   21.623906   20.153773 H          1 MOL1         0.0783
      58    O14     17.791756   23.645606   19.946280 O.3        1 MOL1        -0.3740
      59    C18     16.709093   21.864512   18.678045 C.3        1 MOL1         0.0138
      60    H28     16.666781   20.768470   18.622552 H          1 MOL1         0.0794
      61    H29     17.357983   22.205065   17.860395 H          1 MOL1         0.0794
      62    O15     15.392525   22.405727   18.517804 O.3        1 MOL1        -0.5486
      63    H30     14.793955   21.904356   19.112490 H          1 MOL1         0.3769
      64    C19     23.708106   22.774172   20.834642 C.3        1 MOL1         0.2972
      65    H31     24.774994   22.879034   20.599244 H          1 MOL1         0.0751
      66    O16     23.371261   21.407676   21.157008 O.3        1 MOL1        -0.3740
      67    C20     23.288048   23.719948   21.995186 C.3        1 MOL1         0.1003
      68    H32     23.446202   24.747879   21.643657 H          1 MOL1         0.0783
      69    O17     24.072912   23.514726   23.178469 O.3        1 MOL1        -0.5519
      70    H33     23.852511   22.609499   23.512550 H          1 MOL1         0.3769
      71    C21     21.781011   23.551717   22.305225 C.3        1 MOL1         0.1053
      72    H34     21.620232   22.535552   22.688917 H          1 MOL1         0.0783
      73    O18     21.374095   24.508815   23.289027 O.3        1 MOL1        -0.5519
      74    H35     22.077022   24.488600   23.975913 H          1 MOL1         0.3769
      75    C22     20.929990   23.726745   21.024657 C.3        1 MOL1         0.1018
      76    H36     20.919776   24.793505   20.765763 H          1 MOL1         0.0783
      77    C23     21.481272   22.905269   19.825861 C.3        1 MOL1         0.1043
      78    H37     21.315954   21.843193   20.039527 H          1 MOL1         0.0783
      79    O19     22.906099   23.143699   19.689731 O.3        1 MOL1        -0.3740
      80    C24     20.791404   23.195019   18.468912 C.3        1 MOL1         0.0138
      81    H38     19.866752   22.606150   18.415232 H          1 MOL1         0.0794
      82    H39     21.445550   22.837011   17.662779 H          1 MOL1         0.0794
      83    O20     20.486510   24.580643   18.276140 O.3        1 MOL1        -0.5486
      84    H40     19.585318   24.727457   18.639395 H          1 MOL1         0.3769
      85    C25     24.652604   17.743490   22.469151 C.3        1 MOL1         0.2972
      86    H41     25.175095   16.869448   22.878380 H          1 MOL1         0.0751
      87    O21     23.459790   17.365982   21.755899 O.3        1 MOL1        -0.3740
      88    C26     24.251073   18.708940   23.610374 C.3        1 MOL1         0.1003
      89    H42     25.174935   19.021927   24.114287 H          1 MOL1         0.0783
      90    O22     23.376412   18.066698   24.556580 O.3        1 MOL1        -0.5519
      91    H43     23.528240   17.093700   24.468406 H          1 MOL1         0.3769
      92    C27     23.551167   19.960847   23.040294 C.3        1 MOL1         0.1053
      93    H44     22.589079   19.633972   22.631661 H          1 MOL1         0.0783
      94    O23     23.332177   20.895133   24.103002 O.3        1 MOL1        -0.5519
      95    H45     23.316643   20.355274   24.923856 H          1 MOL1         0.3769
      96    C28     24.338188   20.620233   21.879885 C.3        1 MOL1         0.1018
      97    H46     25.151100   21.230246   22.294876 H          1 MOL1         0.0783
      98    C29     24.905051   19.583235   20.867936 C.3        1 MOL1         0.1043
      99    H47     24.068023   19.214922   20.261454 H          1 MOL1         0.0783
     100    O24     25.511103   18.461501   21.558759 O.3        1 MOL1        -0.3740
     101    C30     25.944248   20.180759   19.889630 C.3        1 MOL1         0.0138
     102    H48     25.421501   20.849635   19.192662 H          1 MOL1         0.0794
     103    H49     26.376441   19.364316   19.295590 H          1 MOL1         0.0794
     104    O25     26.977523   20.902117   20.571733 O.3        1 MOL1        -0.5486
     105    H50     27.637907   21.183047   19.901075 H          1 MOL1         0.3769
     106    C31     21.337658   13.879818   20.896290 C.3        1 MOL1         0.2972
     107    H51     21.049578   12.869313   20.579451 H          1 MOL1         0.0751
     108    O26     20.188954   14.707808   21.169696 O.3        1 MOL1        -0.3740
     109    C32     22.176111   13.821275   22.199385 C.3        1 MOL1         0.1003
     110    H52     23.071938   13.221883   21.991199 H          1 MOL1         0.0783
     111    O27     21.427522   13.204128   23.259703 O.3        1 MOL1        -0.5519
     112    H53     20.484238   13.489702   23.161921 H          1 MOL1         0.3769
     113    C33     22.634222   15.239566   22.620919 C.3        1 MOL1         0.1053
     114    H54     21.739132   15.808199   22.895752 H          1 MOL1         0.0783
     115    O28     23.504169   15.142276   23.754141 O.3        1 MOL1        -0.5519
     116    H55     23.095820   14.453254   24.325909 H          1 MOL1         0.3769
     117    C34     23.331781   15.968735   21.440186 C.3        1 MOL1         0.1018
     118    H56     24.310681   15.505529   21.260327 H          1 MOL1         0.0783
     119    C35     22.488481   15.897606   20.140070 C.3        1 MOL1         0.1043
     120    H57     21.571892   16.482124   20.289820 H          1 MOL1         0.0783
     121    O29     22.135098   14.520349   19.876061 O.3        1 MOL1        -0.3740
     122    C36     23.199701   16.486474   18.895019 C.3        1 MOL1         0.0138
     123    H58     23.083237   17.577787   18.913190 H          1 MOL1         0.0794
     124    H59     22.687239   16.124054   17.993992 H          1 MOL1         0.0794
     125    O30     24.592829   16.156717   18.837566 O.3        1 MOL1        -0.5486
     126    H60     25.039255   16.646794   19.562627 H          1 MOL1         0.3769
     127    N1      20.701334   19.356952   24.743164 N.4        1 MOL1        -0.5937
     128    H1      21.644075   18.935337   24.726763 H          1 MOL1         0.3684
     129    H2      20.459499   19.528515   25.722589 H          1 MOL1         0.3684
     130    H3      20.761404   20.263490   24.270456 H          1 MOL1         0.3684
     131    C1      19.711133   18.436795   24.086450 C.3        1 MOL1         0.1270
     132    H4      18.722747   18.899766   24.177959 H          1 MOL1         0.0960
     133    C2      19.695496   17.089923   24.828587 C.3        1 MOL1        -0.2382
     134    H5      19.396815   17.229108   25.874566 H          1 MOL1         0.1009
     135    H6      20.686087   16.619225   24.820182 H          1 MOL1         0.1009
     136    H7      18.985650   16.390599   24.372656 H          1 MOL1         0.1009
     137    C3      20.015831   18.224692   22.588355 C.3        1 MOL1        -0.1392
     138    H8      21.041951   17.863208   22.474631 H          1 MOL1         0.0998
     139    H9      19.365423   17.431325   22.197768 H          1 MOL1         0.0998
     140    C4      19.820224   19.496883   21.729533 C.3        1 MOL1        -0.1302
     141    H10     20.483710   20.303448   22.067960 H          1 MOL1         0.0998
     142    H11     18.795165   19.869762   21.847657 H          1 MOL1         0.0998
     143    C5      20.094144   19.201533   20.239551 C.3        1 MOL1        -0.2317
     144    H12     21.142197   18.913550   20.086278 H          1 MOL1         0.1009
     145    H13     19.894458   20.083035   19.619782 H          1 MOL1         0.1009
     146    H14     19.454582   18.386792   19.875536 H          1 MOL1         0.1009
@<TRIPOS>BOND
    1     1     2    1
    2     1     3    1
    3     1     4    1
    4     4     5    1
    5     4     6    1
    6     6     7    1
    7     4     8    1
    8     8     9    1
    9     8    10    1
   10    10    11    1
   11     8    12    1
   12    12    13    1
   13    12    14    1
   14    14    15    1
   15     1    16    1
   16    14    16    1
   17    14    17    1
   18    17    18    1
   19    17    19    1
   20    17    20    1
   21    20    21    1
   22    22    23    1
   23    22    24    1
   24    22    25    1
   25    25    26    1
   26    25    27    1
   27    27    28    1
   28    25    29    1
   29    29    30    1
   30    29    31    1
   31    31    32    1
   32     3    33    1
   33    29    33    1
   34    33    34    1
   35    33    35    1
   36    35    36    1
   37    22    37    1
   38    35    37    1
   39    35    38    1
   40    38    39    1
   41    38    40    1
   42    38    41    1
   43    41    42    1
   44    43    44    1
   45    43    45    1
   46    43    46    1
   47    46    47    1
   48    46    48    1
   49    48    49    1
   50    46    50    1
   51    50    51    1
   52    50    52    1
   53    52    53    1
   54    24    54    1
   55    50    54    1
   56    54    55    1
   57    54    56    1
   58    56    57    1
   59    43    58    1
   60    56    58    1
   61    56    59    1
   62    59    60    1
   63    59    61    1
   64    59    62    1
   65    62    63    1
   66    64    65    1
   67    64    66    1
   68    64    67    1
   69    67    68    1
   70    67    69    1
   71    69    70    1
   72    67    71    1
   73    71    72    1
   74    71    73    1
   75    73    74    1
   76    45    75    1
   77    71    75    1
   78    75    76    1
   79    75    77    1
   80    77    78    1
   81    64    79    1
   82    77    79    1
   83    77    80    1
   84    80    81    1
   85    80    82    1
   86    80    83    1
   87    83    84    1
   88    85    86    1
   89    85    87    1
   90    85    88    1
   91    88    89    1
   92    88    90    1
   93    90    91    1
   94    88    92    1
   95    92    93    1
   96    92    94    1
   97    94    95    1
   98    66    96    1
   99    92    96    1
  100    96    97    1
  101    96    98    1
  102    98    99    1
  103    85   100    1
  104    98   100    1
  105    98   101    1
  106   101   102    1
  107   101   103    1
  108   101   104    1
  109   104   105    1
  110   106   107    1
  111    12   108    1
  112   106   108    1
  113   106   109    1
  114   109   110    1
  115   109   111    1
  116   111   112    1
  117   109   113    1
  118   113   114    1
  119   113   115    1
  120   115   116    1
  121    87   117    1
  122   113   117    1
  123   117   118    1
  124   117   119    1
  125   119   120    1
  126   106   121    1
  127   119   121    1
  128   119   122    1
  129   122   123    1
  130   122   124    1
  131   122   125    1
  132   125   126    1
  133   127   128    1
  134   127   129    1
  135   127   130    1
  136   127   131    1
  137   131   132    1
  138   131   133    1
  139   133   134    1
  140   133   135    1
  141   133   136    1
  142   131   137    1
  143   137   138    1
  144   137   139    1
  145   137   140    1
  146   140   141    1
  147   140   142    1
  148   140   143    1
  149   143   144    1
  150   143   145    1
  151   143   146    1
@<TRIPOS>SUBSTRUCTURE
       1 MOL1            1 RESIDUE      1      MOL     
       2 MOL1          146 RESIDUE      1      MOL     
@<SCITEGIC>MOL_PROPERTY
feprocess Rank
SciTegic.value.IntegerValue
3

@<SCITEGIC>MOL_PROPERTY
Conf_Id
SciTegic.value.IntegerValue
261

@<SCITEGIC>MOL_PROPERTY
Probability
SciTegic.value.DoubleValue
2.51

@<SCITEGIC>MOL_PROPERTY
G
SciTegic.value.DoubleValue
536.394

@<SCITEGIC>MOL_PROPERTY
E
SciTegic.value.DoubleValue
343.633

@<SCITEGIC>MOL_PROPERTY
-TS
SciTegic.value.DoubleValue
192.761

@<SCITEGIC>MOL_PROPERTY
U+W
SciTegic.value.DoubleValue
214.862

@<SCITEGIC>MOL_PROPERTY
U
SciTegic.value.DoubleValue
302.077

@<SCITEGIC>MOL_PROPERTY
W
SciTegic.value.DoubleValue
-87.214

@<SCITEGIC>MOL_PROPERTY
W(PB)
SciTegic.value.DoubleValue
-93.240

@<SCITEGIC>MOL_PROPERTY
W(SA)
SciTegic.value.DoubleValue
6.026

@<SCITEGIC>MOL_PROPERTY
Valence
SciTegic.value.DoubleValue
147.175

@<SCITEGIC>MOL_PROPERTY
Coulomb
SciTegic.value.DoubleValue
178.709

@<SCITEGIC>MOL_PROPERTY
VdW
SciTegic.value.DoubleValue
-23.807

@<SCITEGIC>MOL_PROPERTY
VdW6
SciTegic.value.DoubleValue
-178.015

@<SCITEGIC>MOL_PROPERTY
VdW12
SciTegic.value.DoubleValue
154.208

@<SCITEGIC>MOL_PROPERTY
Bond
SciTegic.value.DoubleValue
4.608

@<SCITEGIC>MOL_PROPERTY
Angle
SciTegic.value.DoubleValue
12.707

@<SCITEGIC>MOL_PROPERTY
Pdih
SciTegic.value.DoubleValue
129.860

@<SCITEGIC>MOL_PROPERTY
Idih
SciTegic.value.DoubleValue
0.000

@<SCITEGIC>MOL_PROPERTY
Tether
SciTegic.value.DoubleValue
0.000

@<TRIPOS>MOLECULE
CD_guest-s10_fast_vm2_rndm.mol2 : feprocess host+ligand conformer 4
         146         151           2
SMALL
USER_CHARGES
 
@<TRIPOS>ATOM
       1    C1      16.217985   15.083747   21.271744 C.3        1 MOL1         0.2972
       2    H1      15.144854   14.896503   21.137753 H          1 MOL1         0.0751
       3    O1      16.491326   16.480002   21.496875 O.3        1 MOL1        -0.3740
       4    C2      16.733008   14.302819   22.502500 C.3        1 MOL1         0.1003
       5    H2      16.550042   13.236098   22.318365 H          1 MOL1         0.0783
       6    O2      16.023962   14.712887   23.683358 O.3        1 MOL1        -0.5519
       7    H3      15.702697   15.633892   23.520947 H          1 MOL1         0.3769
       8    C3      18.254505   14.503515   22.695577 C.3        1 MOL1         0.1053
       9    H4      18.417198   15.544412   22.997600 H          1 MOL1         0.0783
      10    O3      18.701644   13.624721   23.733808 O.3        1 MOL1        -0.5519
      11    H5      17.995031   13.666370   24.418018 H          1 MOL1         0.3769
      12    C4      19.042845   14.256526   21.378937 C.3        1 MOL1         0.1018
      13    H6      19.112460   13.176656   21.196160 H          1 MOL1         0.0783
      14    C5      18.382246   14.941000   20.152210 C.3        1 MOL1         0.1043
      15    H7      18.527918   16.023484   20.257842 H          1 MOL1         0.0783
      16    O4      16.962611   14.653187   20.114251 O.3        1 MOL1        -0.3740
      17    C6      19.010915   14.532159   18.796710 C.3        1 MOL1         0.0138
      18    H8      19.998886   15.004310   18.712739 H          1 MOL1         0.0794
      19    H9      18.389218   14.936541   17.986956 H          1 MOL1         0.0794
      20    O5      19.140852   13.113045   18.651540 O.3        1 MOL1        -0.5486
      21    H10     19.885429   12.824820   19.222058 H          1 MOL1         0.3769
      22    C7      14.836477   20.245518   20.724133 C.3        1 MOL1         0.2972
      23    H11     14.169187   21.049387   20.387284 H          1 MOL1         0.0751
      24    O6      16.085038   20.760246   21.226381 O.3        1 MOL1        -0.3740
      25    C8      14.177814   19.433314   21.869604 C.3        1 MOL1         0.1003
      26    H12     13.229095   19.032414   21.489824 H          1 MOL1         0.0783
      27    O7      13.918946   20.273514   23.006769 O.3        1 MOL1        -0.5519
      28    H13     14.711235   20.854596   23.132441 H          1 MOL1         0.3769
      29    C9      15.074894   18.239903   22.279102 C.3        1 MOL1         0.1053
      30    H14     15.988738   18.645922   22.730162 H          1 MOL1         0.0783
      31    O8      14.390949   17.416982   23.230289 O.3        1 MOL1        -0.5519
      32    H15     13.981951   18.045324   23.865963 H          1 MOL1         0.3769
      33    C10     15.480263   17.398848   21.045128 C.3        1 MOL1         0.1018
      34    H16     14.587673   16.881172   20.669609 H          1 MOL1         0.0783
      35    C11     16.071268   18.290577   19.918041 C.3        1 MOL1         0.1043
      36    H17     17.011239   18.729521   20.276244 H          1 MOL1         0.0783
      37    O9      15.125984   19.347511   19.631035 O.3        1 MOL1        -0.3740
      38    C12     16.389426   17.558135   18.589404 C.3        1 MOL1         0.0138
      39    H18     17.410690   17.162928   18.643242 H          1 MOL1         0.0794
      40    H19     16.379731   18.295148   17.775330 H          1 MOL1         0.0794
      41    O10     15.477059   16.494373   18.296360 O.3        1 MOL1        -0.5486
      42    H20     15.785683   15.708078   18.803913 H          1 MOL1         0.3769
      43    C13     18.403505   24.174163   21.257805 C.3        1 MOL1         0.2972
      44    H21     18.826993   25.185585   21.207389 H          1 MOL1         0.0751
      45    O11     19.438917   23.167651   21.292580 O.3        1 MOL1        -0.3740
      46    C14     17.468438   24.014582   22.486972 C.3        1 MOL1         0.1003
      47    H22     16.619732   24.694770   22.337260 H          1 MOL1         0.0783
      48    O12     18.122027   24.361348   23.716099 O.3        1 MOL1        -0.5519
      49    H23     18.869418   23.723332   23.836584 H          1 MOL1         0.3769
      50    C15     16.915196   22.571026   22.542732 C.3        1 MOL1         0.1053
      51    H24     17.757978   21.886886   22.702536 H          1 MOL1         0.0783
      52    O13     15.979170   22.446336   23.619136 O.3        1 MOL1        -0.5519
      53    H25     16.395808   22.912590   24.377648 H          1 MOL1         0.3769
      54    C16     16.227703   22.192743   21.208816 C.3        1 MOL1         0.1018
      55    H26     15.255100   22.701439   21.176301 H          1 MOL1         0.0783
      56    C17     17.070265   22.576210   19.956599 C.3        1 MOL1         0.1043
      57    H27     17.909292   21.872123   19.880379 H          1 MOL1         0.0783
      58    O14     17.592989   23.922822   20.091009 O.3        1 MOL1        -0.3740
      59    C18     16.281303   22.498071   18.627008 C.3        1 MOL1         0.0138
      60    H28     16.117123   21.441603   18.377833 H          1 MOL1         0.0794
      61    H29     16.900666   22.926259   17.827540 H          1 MOL1         0.0794
      62    O15     15.023655   23.181748   18.702108 O.3        1 MOL1        -0.5486
      63    H30     14.610845   23.143412   17.811761 H          1 MOL1         0.3769
      64    C19     23.452454   22.496857   22.052902 C.3        1 MOL1         0.2972
      65    H31     24.507622   22.565608   22.345536 H          1 MOL1         0.0751
      66    O16     23.197707   21.326088   21.248187 O.3        1 MOL1        -0.3740
      67    C20     22.543180   22.457822   23.308469 C.3        1 MOL1         0.1003
      68    H32     22.720024   23.388553   23.863331 H          1 MOL1         0.0783
      69    O17     22.838924   21.337809   24.159459 O.3        1 MOL1        -0.5519
      70    H33     23.766564   21.062099   23.963840 H          1 MOL1         0.3769
      71    C21     21.055015   22.412578   22.902016 C.3        1 MOL1         0.1053
      72    H34     20.874101   21.452538   22.403634 H          1 MOL1         0.0783
      73    O18     20.262028   22.504082   24.088590 O.3        1 MOL1        -0.5519
      74    H35     20.743236   21.947620   24.742141 H          1 MOL1         0.3769
      75    C22     20.690706   23.540073   21.904939 C.3        1 MOL1         0.1018
      76    H36     20.617284   24.487832   22.454764 H          1 MOL1         0.0783
      77    C23     21.730306   23.669524   20.755287 C.3        1 MOL1         0.1043
      78    H37     21.605135   22.808965   20.084928 H          1 MOL1         0.0783
      79    O19     23.080138   23.660676   21.284698 O.3        1 MOL1        -0.3740
      80    C24     21.545816   24.946990   19.901378 C.3        1 MOL1         0.0138
      81    H38     20.630936   24.836540   19.303506 H          1 MOL1         0.0794
      82    H39     22.386996   25.023800   19.199469 H          1 MOL1         0.0794
      83    O20     21.458834   26.129149   20.707154 O.3        1 MOL1        -0.5486
      84    H40     21.422632   26.900972   20.100675 H          1 MOL1         0.3769
      85    C25     25.004682   17.667409   20.479807 C.3        1 MOL1         0.2972
      86    H41     25.645015   16.835168   20.160359 H          1 MOL1         0.0751
      87    O21     23.681963   17.208330   20.831863 O.3        1 MOL1        -0.3740
      88    C26     25.639956   18.446118   21.662884 C.3        1 MOL1         0.1003
      89    H42     26.572588   18.886716   21.286621 H          1 MOL1         0.0783
      90    O22     25.956195   17.595869   22.774658 O.3        1 MOL1        -0.5519
      91    H43     25.094175   17.278476   23.144374 H          1 MOL1         0.3769
      92    C27     24.717619   19.606781   22.108408 C.3        1 MOL1         0.1053
      93    H44     23.791781   19.175858   22.513914 H          1 MOL1         0.0783
      94    O23     25.394741   20.354972   23.125119 O.3        1 MOL1        -0.5519
      95    H45     25.857353   19.678870   23.671362 H          1 MOL1         0.3769
      96    C28     24.342434   20.517069   20.903429 C.3        1 MOL1         0.1018
      97    H46     25.206732   21.143374   20.648808 H          1 MOL1         0.0783
      98    C29     23.919494   19.699628   19.649457 C.3        1 MOL1         0.1043
      99    H47     22.925640   19.274513   19.839961 H          1 MOL1         0.0783
     100    O24     24.856340   18.619527   19.404717 O.3        1 MOL1        -0.3740
     101    C30     23.798878   20.555207   18.364012 C.3        1 MOL1         0.0138
     102    H48     22.911280   21.196063   18.452638 H          1 MOL1         0.0794
     103    H49     23.628035   19.881914   17.513576 H          1 MOL1         0.0794
     104    O25     24.957472   21.363968   18.124722 O.3        1 MOL1        -0.5486
     105    H50     24.936876   22.107119   18.765208 H          1 MOL1         0.3769
     106    C31     21.368648   14.056654   22.120729 C.3        1 MOL1         0.2972
     107    H51     20.960455   13.114667   22.508813 H          1 MOL1         0.0751
     108    O26     20.346672   14.859995   21.498385 O.3        1 MOL1        -0.3740
     109    C32     22.023240   14.870323   23.265401 C.3        1 MOL1         0.1003
     110    H52     22.819706   14.244396   23.688836 H          1 MOL1         0.0783
     111    O27     21.072211   15.191308   24.295432 O.3        1 MOL1        -0.5519
     112    H53     20.376671   14.488746   24.263891 H          1 MOL1         0.3769
     113    C33     22.663001   16.171087   22.730644 C.3        1 MOL1         0.1053
     114    H54     21.854994   16.839238   22.415521 H          1 MOL1         0.0783
     115    O28     23.401980   16.780614   23.792616 O.3        1 MOL1        -0.5519
     116    H55     22.858834   16.622689   24.594986 H          1 MOL1         0.3769
     117    C34     23.569050   15.932399   21.496014 C.3        1 MOL1         0.1018
     118    H56     24.540698   15.549283   21.833981 H          1 MOL1         0.0783
     119    C35     22.940274   14.950647   20.466350 C.3        1 MOL1         0.1043
     120    H57     22.131579   15.479058   19.944786 H          1 MOL1         0.0783
     121    O29     22.388404   13.789258   21.136131 O.3        1 MOL1        -0.3740
     122    C36     23.938329   14.468511   19.386389 C.3        1 MOL1         0.0138
     123    H58     24.160723   15.310980   18.717629 H          1 MOL1         0.0794
     124    H59     23.451396   13.691838   18.781510 H          1 MOL1         0.0794
     125    O30     25.154126   13.967447   19.956133 O.3        1 MOL1        -0.5486
     126    H60     25.701392   13.609219   19.223316 H          1 MOL1         0.3769
     127    N1      20.144138   17.610725   25.594650 N.4        1 MOL1        -0.5937
     128    H1      19.891309   17.218970   26.505087 H          1 MOL1         0.3684
     129    H2      21.073027   18.028849   25.690560 H          1 MOL1         0.3684
     130    H3      20.238251   16.818977   24.940917 H          1 MOL1         0.3684
     131    C1      19.137816   18.628466   25.131354 C.3        1 MOL1         0.1270
     132    H4      19.175467   19.434021   25.871315 H          1 MOL1         0.0960
     133    C2      17.706695   18.062067   25.143566 C.3        1 MOL1        -0.2382
     134    H5      16.984236   18.832804   24.848530 H          1 MOL1         0.1009
     135    H6      17.435527   17.724774   26.151172 H          1 MOL1         0.1009
     136    H7      17.597118   17.207587   24.465999 H          1 MOL1         0.1009
     137    C3      19.520509   19.248769   23.768373 C.3        1 MOL1        -0.1392
     138    H8      18.919133   20.152886   23.615428 H          1 MOL1         0.0998
     139    H9      20.565776   19.580068   23.823551 H          1 MOL1         0.0998
     140    C4      19.340974   18.320163   22.543843 C.3        1 MOL1        -0.1302
     141    H10     18.274199   18.141731   22.369375 H          1 MOL1         0.0998
     142    H11     19.793999   17.342841   22.741213 H          1 MOL1         0.0998
     143    C5      19.963228   18.928467   21.269185 C.3        1 MOL1        -0.2317
     144    H12     19.837884   18.251368   20.414959 H          1 MOL1         0.1009
     145    H13     21.038956   19.104289   21.403210 H          1 MOL1         0.1009
     146    H14     19.488408   19.886288   21.017747 H          1 MOL1         0.1009
@<TRIPOS>BOND
    1     1     2    1
    2     1     3    1
    3     1     4    1
    4     4     5    1
    5     4     6    1
    6     6     7    1
    7     4     8    1
    8     8     9    1
    9     8    10    1
   10    10    11    1
   11     8    12    1
   12    12    13    1
   13    12    14    1
   14    14    15    1
   15     1    16    1
   16    14    16    1
   17    14    17    1
   18    17    18    1
   19    17    19    1
   20    17    20    1
   21    20    21    1
   22    22    23    1
   23    22    24    1
   24    22    25    1
   25    25    26    1
   26    25    27    1
   27    27    28    1
   28    25    29    1
   29    29    30    1
   30    29    31    1
   31    31    32    1
   32     3    33    1
   33    29    33    1
   34    33    34    1
   35    33    35    1
   36    35    36    1
   37    22    37    1
   38    35    37    1
   39    35    38    1
   40    38    39    1
   41    38    40    1
   42    38    41    1
   43    41    42    1
   44    43    44    1
   45    43    45    1
   46    43    46    1
   47    46    47    1
   48    46    48    1
   49    48    49    1
   50    46    50    1
   51    50    51    1
   52    50    52    1
   53    52    53    1
   54    24    54    1
   55    50    54    1
   56    54    55    1
   57    54    56    1
   58    56    57    1
   59    43    58    1
   60    56    58    1
   61    56    59    1
   62    59    60    1
   63    59    61    1
   64    59    62    1
   65    62    63    1
   66    64    65    1
   67    64    66    1
   68    64    67    1
   69    67    68    1
   70    67    69    1
   71    69    70    1
   72    67    71    1
   73    71    72    1
   74    71    73    1
   75    73    74    1
   76    45    75    1
   77    71    75    1
   78    75    76    1
   79    75    77    1
   80    77    78    1
   81    64    79    1
   82    77    79    1
   83    77    80    1
   84    80    81    1
   85    80    82    1
   86    80    83    1
   87    83    84    1
   88    85    86    1
   89    85    87    1
   90    85    88    1
   91    88    89    1
   92    88    90    1
   93    90    91    1
   94    88    92    1
   95    92    93    1
   96    92    94    1
   97    94    95    1
   98    66    96    1
   99    92    96    1
  100    96    97    1
  101    96    98    1
  102    98    99    1
  103    85   100    1
  104    98   100    1
  105    98   101    1
  106   101   102    1
  107   101   103    1
  108   101   104    1
  109   104   105    1
  110   106   107    1
  111    12   108    1
  112   106   108    1
  113   106   109    1
  114   109   110    1
  115   109   111    1
  116   111   112    1
  117   109   113    1
  118   113   114    1
  119   113   115    1
  120   115   116    1
  121    87   117    1
  122   113   117    1
  123   117   118    1
  124   117   119    1
  125   119   120    1
  126   106   121    1
  127   119   121    1
  128   119   122    1
  129   122   123    1
  130   122   124    1
  131   122   125    1
  132   125   126    1
  133   127   128    1
  134   127   129    1
  135   127   130    1
  136   127   131    1
  137   131   132    1
  138   131   133    1
  139   133   134    1
  140   133   135    1
  141   133   136    1
  142   131   137    1
  143   137   138    1
  144   137   139    1
  145   137   140    1
  146   140   141    1
  147   140   142    1
  148   140   143    1
  149   143   144    1
  150   143   145    1
  151   143   146    1
@<TRIPOS>SUBSTRUCTURE
       1 MOL1            1 RESIDUE      1      MOL     
       2 MOL1          146 RESIDUE      1      MOL     
@<SCITEGIC>MOL_PROPERTY
feprocess Rank
SciTegic.value.IntegerValue
4

@<SCITEGIC>MOL_PROPERTY
Conf_Id
SciTegic.value.IntegerValue
335

@<SCITEGIC>MOL_PROPERTY
Probability
SciTegic.value.DoubleValue
1.78

@<SCITEGIC>MOL_PROPERTY
G
SciTegic.value.DoubleValue
536.601

@<SCITEGIC>MOL_PROPERTY
E
SciTegic.value.DoubleValue
343.769

@<SCITEGIC>MOL_PROPERTY
-TS
SciTegic.value.DoubleValue
192.832

@<SCITEGIC>MOL_PROPERTY
U+W
SciTegic.value.DoubleValue
214.998

@<SCITEGIC>MOL_PROPERTY
U
SciTegic.value.DoubleValue
305.452

@<SCITEGIC>MOL_PROPERTY
W
SciTegic.value.DoubleValue
-90.454

@<SCITEGIC>MOL_PROPERTY
W(PB)
SciTegic.value.DoubleValue
-96.595

@<SCITEGIC>MOL_PROPERTY
W(SA)
SciTegic.value.DoubleValue
6.141

@<SCITEGIC>MOL_PROPERTY
Valence
SciTegic.value.DoubleValue
146.791

@<SCITEGIC>MOL_PROPERTY
Coulomb
SciTegic.value.DoubleValue
178.914

@<SCITEGIC>MOL_PROPERTY
VdW
SciTegic.value.DoubleValue
-20.253

@<SCITEGIC>MOL_PROPERTY
VdW6
SciTegic.value.DoubleValue
-173.065

@<SCITEGIC>MOL_PROPERTY
VdW12
SciTegic.value.DoubleValue
152.812

@<SCITEGIC>MOL_PROPERTY
Bond
SciTegic.value.DoubleValue
4.635

@<SCITEGIC>MOL_PROPERTY
Angle
SciTegic.value.DoubleValue
12.834

@<SCITEGIC>MOL_PROPERTY
Pdih
SciTegic.value.DoubleValue
129.322

@<SCITEGIC>MOL_PROPERTY
Idih
SciTegic.value.DoubleValue
0.000

@<SCITEGIC>MOL_PROPERTY
Tether
SciTegic.value.DoubleValue
0.000

@<TRIPOS>MOLECULE
CD_guest-s10_fast_vm2_rndm.mol2 : feprocess host+ligand conformer 5
         146         151           2
SMALL
USER_CHARGES
 
@<TRIPOS>ATOM
       1    C1      16.048664   15.001447   21.091853 C.3        1 MOL1         0.2972
       2    H1      14.962717   14.854181   21.045998 H          1 MOL1         0.0751
       3    O1      16.396060   16.399422   21.207027 O.3        1 MOL1        -0.3740
       4    C2      16.671586   14.210500   22.270920 C.3        1 MOL1         0.1003
       5    H2      16.523061   13.143479   22.058999 H          1 MOL1         0.0783
       6    O2      16.039597   14.520744   23.520347 O.3        1 MOL1        -0.5519
       7    H3      16.130010   15.496318   23.663052 H          1 MOL1         0.3769
       8    C3      18.195093   14.471579   22.333918 C.3        1 MOL1         0.1053
       9    H4      18.354101   15.533599   22.563744 H          1 MOL1         0.0783
      10    O3      18.781935   13.665465   23.360563 O.3        1 MOL1        -0.5519
      11    H5      18.171360   13.743091   24.127401 H          1 MOL1         0.3769
      12    C4      18.865197   14.154746   20.972710 C.3        1 MOL1         0.1018
      13    H6      18.951749   13.063733   20.882866 H          1 MOL1         0.0783
      14    C5      18.086442   14.730742   19.752527 C.3        1 MOL1         0.1043
      15    H7      18.260088   15.813377   19.716246 H          1 MOL1         0.0783
      16    O4      16.662436   14.491958   19.890148 O.3        1 MOL1        -0.3740
      17    C6      18.549914   14.150794   18.394521 C.3        1 MOL1         0.0138
      18    H8      19.546373   14.551754   18.165221 H          1 MOL1         0.0794
      19    H9      17.867896   14.506799   17.610792 H          1 MOL1         0.0794
      20    O5      18.593110   12.718253   18.404191 O.3        1 MOL1        -0.5486
      21    H10     18.824747   12.421259   17.497092 H          1 MOL1         0.3769
      22    C7      15.044198   20.233427   21.897584 C.3        1 MOL1         0.2972
      23    H11     14.471493   21.140160   22.128764 H          1 MOL1         0.0751
      24    O6      16.322222   20.544484   21.308966 O.3        1 MOL1        -0.3740
      25    C8      15.293372   19.414326   23.186301 C.3        1 MOL1         0.1003
      26    H12     14.311174   19.154023   23.602202 H          1 MOL1         0.0783
      27    O7      16.038856   20.178067   24.152714 O.3        1 MOL1        -0.5519
      28    H13     15.855163   21.130531   23.961714 H          1 MOL1         0.3769
      29    C9      16.051765   18.108211   22.860464 C.3        1 MOL1         0.1053
      30    H14     17.056933   18.388226   22.529163 H          1 MOL1         0.0783
      31    O8      16.134850   17.319817   24.049810 O.3        1 MOL1        -0.5519
      32    H15     16.118855   17.969108   24.785965 H          1 MOL1         0.3769
      33    C10     15.390462   17.302598   21.712856 C.3        1 MOL1         0.1018
      34    H16     14.516177   16.772281   22.111501 H          1 MOL1         0.0783
      35    C11     14.977550   18.205855   20.515333 C.3        1 MOL1         0.1043
      36    H17     15.892223   18.497454   19.983438 H          1 MOL1         0.0783
      37    O9      14.305470   19.402897   20.978279 O.3        1 MOL1        -0.3740
      38    C12     14.061941   17.495769   19.488544 C.3        1 MOL1         0.0138
      39    H18     14.628337   16.685049   19.010149 H          1 MOL1         0.0794
      40    H19     13.803070   18.216079   18.701191 H          1 MOL1         0.0794
      41    O10     12.865733   16.975535   20.083859 O.3        1 MOL1        -0.5486
      42    H20     13.106563   16.204593   20.637254 H          1 MOL1         0.3769
      43    C13     18.594560   23.954222   20.533916 C.3        1 MOL1         0.2972
      44    H21     18.960976   24.923857   20.172806 H          1 MOL1         0.0751
      45    O11     19.650464   23.161231   21.114173 O.3        1 MOL1        -0.3740
      46    C14     17.501296   24.145251   21.616874 C.3        1 MOL1         0.1003
      47    H22     16.670910   24.692639   21.152093 H          1 MOL1         0.0783
      48    O12     17.999667   24.904971   22.729669 O.3        1 MOL1        -0.5519
      49    H23     18.895164   24.547970   22.958940 H          1 MOL1         0.3769
      50    C15     16.960824   22.774354   22.095421 C.3        1 MOL1         0.1053
      51    H24     17.776838   22.253191   22.609777 H          1 MOL1         0.0783
      52    O13     15.882447   22.990152   23.012543 O.3        1 MOL1        -0.5519
      53    H25     16.174009   23.748018   23.568905 H          1 MOL1         0.3769
      54    C16     16.507845   21.908180   20.885234 C.3        1 MOL1         0.1018
      55    H26     15.580785   22.326830   20.472846 H          1 MOL1         0.0783
      56    C17     17.586024   21.862557   19.769329 C.3        1 MOL1         0.1043
      57    H27     18.446596   21.297074   20.146519 H          1 MOL1         0.0783
      58    O14     18.010659   23.206910   19.444948 O.3        1 MOL1        -0.3740
      59    C18     17.116596   21.155743   18.472787 C.3        1 MOL1         0.0138
      60    H28     17.140772   20.070877   18.639258 H          1 MOL1         0.0794
      61    H29     17.837736   21.375145   17.674298 H          1 MOL1         0.0794
      62    O15     15.799370   21.548987   18.069363 O.3        1 MOL1        -0.5486
      63    H30     15.167462   21.162871   18.713945 H          1 MOL1         0.3769
      64    C19     23.719376   22.918650   21.653007 C.3        1 MOL1         0.2972
      65    H31     24.804247   23.060723   21.730551 H          1 MOL1         0.0751
      66    O16     23.343716   21.529850   21.772211 O.3        1 MOL1        -0.3740
      67    C20     22.983060   23.723257   22.752428 C.3        1 MOL1         0.1003
      68    H32     23.179891   24.787793   22.569713 H          1 MOL1         0.0783
      69    O17     23.457384   23.378297   24.062774 O.3        1 MOL1        -0.5519
      70    H33     23.520126   22.390578   24.109381 H          1 MOL1         0.3769
      71    C21     21.457853   23.495629   22.644430 C.3        1 MOL1         0.1053
      72    H34     21.257190   22.442789   22.871405 H          1 MOL1         0.0783
      73    O18     20.778740   24.327249   23.589894 O.3        1 MOL1        -0.5519
      74    H35     21.301080   24.247748   24.419487 H          1 MOL1         0.3769
      75    C22     20.942462   23.790035   21.213753 C.3        1 MOL1         0.1018
      76    H36     20.883012   24.879518   21.090701 H          1 MOL1         0.0783
      77    C23     21.839334   23.176181   20.098883 C.3        1 MOL1         0.1043
      78    H37     21.657258   22.094634   20.071194 H          1 MOL1         0.0783
      79    O19     23.243144   23.405668   20.381878 O.3        1 MOL1        -0.3740
      80    C24     21.527671   23.727818   18.686982 C.3        1 MOL1         0.0138
      81    H38     20.550652   23.340037   18.368578 H          1 MOL1         0.0794
      82    H39     22.277307   23.338506   17.985173 H          1 MOL1         0.0794
      83    O20     21.514163   25.160681   18.657279 O.3        1 MOL1        -0.5486
      84    H40     21.369900   25.437768   17.726164 H          1 MOL1         0.3769
      85    C25     24.796845   17.669021   22.159119 C.3        1 MOL1         0.2972
      86    H41     25.417127   16.773821   22.298187 H          1 MOL1         0.0751
      87    O21     23.450842   17.324828   21.784895 O.3        1 MOL1        -0.3740
      88    C26     24.739102   18.475420   23.477718 C.3        1 MOL1         0.1003
      89    H42     25.767554   18.760795   23.734719 H          1 MOL1         0.0783
      90    O22     24.187746   17.674626   24.536553 O.3        1 MOL1        -0.5519
      91    H43     23.954591   16.798272   24.144554 H          1 MOL1         0.3769
      92    C27     23.909248   19.766568   23.294495 C.3        1 MOL1         0.1053
      93    H44     22.867384   19.476713   23.117782 H          1 MOL1         0.0783
      94    O23     23.990279   20.549154   24.487599 O.3        1 MOL1        -0.5519
      95    H45     23.896687   19.898011   25.219112 H          1 MOL1         0.3769
      96    C28     24.391919   20.587615   22.072903 C.3        1 MOL1         0.1018
      97    H46     25.337937   21.080471   22.331700 H          1 MOL1         0.0783
      98    C29     24.576461   19.703967   20.807491 C.3        1 MOL1         0.1043
      99    H47     23.577702   19.407896   20.464601 H          1 MOL1         0.0783
     100    O24     25.341820   18.512291   21.122369 O.3        1 MOL1        -0.3740
     101    C30     25.264969   20.431712   19.627111 C.3        1 MOL1         0.0138
     102    H48     24.585995   21.204664   19.241979 H          1 MOL1         0.0794
     103    H49     25.420329   19.706688   18.817042 H          1 MOL1         0.0794
     104    O25     26.516686   21.021096   20.000118 O.3        1 MOL1        -0.5486
     105    H50     26.329763   21.881300   20.429791 H          1 MOL1         0.3769
     106    C31     21.264260   14.030655   20.487255 C.3        1 MOL1         0.2972
     107    H51     20.935227   13.093912   20.019000 H          1 MOL1         0.0751
     108    O26     20.153363   14.795865   20.998369 O.3        1 MOL1        -0.3740
     109    C32     22.225783   13.751727   21.673332 C.3        1 MOL1         0.1003
     110    H52     23.098899   13.219748   21.273673 H          1 MOL1         0.0783
     111    O27     21.592297   12.937266   22.673030 O.3        1 MOL1        -0.5519
     112    H53     20.699568   13.327333   22.854160 H          1 MOL1         0.3769
     113    C33     22.716051   15.083181   22.294384 C.3        1 MOL1         0.1053
     114    H54     21.848267   15.577005   22.748033 H          1 MOL1         0.0783
     115    O28     23.701247   14.824612   23.300261 O.3        1 MOL1        -0.5519
     116    H55     23.349801   14.061677   23.811904 H          1 MOL1         0.3769
     117    C34     23.296560   16.018945   21.204351 C.3        1 MOL1         0.1018
     118    H56     24.253662   15.606751   20.857879 H          1 MOL1         0.0783
     119    C35     22.343788   16.166415   19.990250 C.3        1 MOL1         0.1043
     120    H57     21.446839   16.698610   20.323772 H          1 MOL1         0.0783
     121    O29     21.967623   14.848934   19.525011 O.3        1 MOL1        -0.3740
     122    C36     22.932357   16.976533   18.805551 C.3        1 MOL1         0.0138
     123    H58     22.686049   18.035273   18.954352 H          1 MOL1         0.0794
     124    H59     22.429373   16.661784   17.881479 H          1 MOL1         0.0794
     125    O30     24.351646   16.831058   18.667623 O.3        1 MOL1        -0.5486
     126    H60     24.771220   17.287471   19.433458 H          1 MOL1         0.3769
     127    N1      18.632943   19.100059   25.046764 N.4        1 MOL1        -0.5937
     128    H1      18.400878   18.334033   25.684000 H          1 MOL1         0.3684
     129    H2      17.743688   19.519118   24.729466 H          1 MOL1         0.3684
     130    H3      19.130756   19.812183   25.585924 H          1 MOL1         0.3684
     131    C1      19.452216   18.612683   23.883916 C.3        1 MOL1         0.1270
     132    H4      18.852727   17.847767   23.381894 H          1 MOL1         0.0960
     133    C2      20.751521   17.962008   24.383770 C.3        1 MOL1        -0.2382
     134    H5      21.343539   17.570810   23.551759 H          1 MOL1         0.1009
     135    H6      20.532250   17.121878   25.053903 H          1 MOL1         0.1009
     136    H7      21.372866   18.680791   24.932142 H          1 MOL1         0.1009
     137    C3      19.725245   19.758665   22.884188 C.3        1 MOL1        -0.1392
     138    H8      18.789298   20.301777   22.710847 H          1 MOL1         0.0998
     139    H9      20.416125   20.474742   23.344403 H          1 MOL1         0.0998
     140    C4      20.281951   19.317865   21.507920 C.3        1 MOL1        -0.1302
     141    H10     21.251241   18.820204   21.626286 H          1 MOL1         0.0998
     142    H11     20.477031   20.215692   20.906611 H          1 MOL1         0.0998
     143    C5      19.313044   18.395236   20.735910 C.3        1 MOL1        -0.2317
     144    H12     18.329761   18.864069   20.613769 H          1 MOL1         0.1009
     145    H13     19.172566   17.440640   21.257397 H          1 MOL1         0.1009
     146    H14     19.701297   18.174937   19.733726 H          1 MOL1         0.1009
@<TRIPOS>BOND
    1     1     2    1
    2     1     3    1
    3     1     4    1
    4     4     5    1
    5     4     6    1
    6     6     7    1
    7     4     8    1
    8     8     9    1
    9     8    10    1
   10    10    11    1
   11     8    12    1
   12    12    13    1
   13    12    14    1
   14    14    15    1
   15     1    16    1
   16    14    16    1
   17    14    17    1
   18    17    18    1
   19    17    19    1
   20    17    20    1
   21    20    21    1
   22    22    23    1
   23    22    24    1
   24    22    25    1
   25    25    26    1
   26    25    27    1
   27    27    28    1
   28    25    29    1
   29    29    30    1
   30    29    31    1
   31    31    32    1
   32     3    33    1
   33    29    33    1
   34    33    34    1
   35    33    35    1
   36    35    36    1
   37    22    37    1
   38    35    37    1
   39    35    38    1
   40    38    39    1
   41    38    40    1
   42    38    41    1
   43    41    42    1
   44    43    44    1
   45    43    45    1
   46    43    46    1
   47    46    47    1
   48    46    48    1
   49    48    49    1
   50    46    50    1
   51    50    51    1
   52    50    52    1
   53    52    53    1
   54    24    54    1
   55    50    54    1
   56    54    55    1
   57    54    56    1
   58    56    57    1
   59    43    58    1
   60    56    58    1
   61    56    59    1
   62    59    60    1
   63    59    61    1
   64    59    62    1
   65    62    63    1
   66    64    65    1
   67    64    66    1
   68    64    67    1
   69    67    68    1
   70    67    69    1
   71    69    70    1
   72    67    71    1
   73    71    72    1
   74    71    73    1
   75    73    74    1
   76    45    75    1
   77    71    75    1
   78    75    76    1
   79    75    77    1
   80    77    78    1
   81    64    79    1
   82    77    79    1
   83    77    80    1
   84    80    81    1
   85    80    82    1
   86    80    83    1
   87    83    84    1
   88    85    86    1
   89    85    87    1
   90    85    88    1
   91    88    89    1
   92    88    90    1
   93    90    91    1
   94    88    92    1
   95    92    93    1
   96    92    94    1
   97    94    95    1
   98    66    96    1
   99    92    96    1
  100    96    97    1
  101    96    98    1
  102    98    99    1
  103    85   100    1
  104    98   100    1
  105    98   101    1
  106   101   102    1
  107   101   103    1
  108   101   104    1
  109   104   105    1
  110   106   107    1
  111    12   108    1
  112   106   108    1
  113   106   109    1
  114   109   110    1
  115   109   111    1
  116   111   112    1
  117   109   113    1
  118   113   114    1
  119   113   115    1
  120   115   116    1
  121    87   117    1
  122   113   117    1
  123   117   118    1
  124   117   119    1
  125   119   120    1
  126   106   121    1
  127   119   121    1
  128   119   122    1
  129   122   123    1
  130   122   124    1
  131   122   125    1
  132   125   126    1
  133   127   128    1
  134   127   129    1
  135   127   130    1
  136   127   131    1
  137   131   132    1
  138   131   133    1
  139   133   134    1
  140   133   135    1
  141   133   136    1
  142   131   137    1
  143   137   138    1
  144   137   139    1
  145   137   140    1
  146   140   141    1
  147   140   142    1
  148   140   143    1
  149   143   144    1
  150   143   145    1
  151   143   146    1
@<TRIPOS>SUBSTRUCTURE
       1 MOL1            1 RESIDUE      1      MOL     
       2 MOL1          146 RESIDUE      1      MOL     
@<SCITEGIC>MOL_PROPERTY
feprocess Rank
SciTegic.value.IntegerValue
5

@<SCITEGIC>MOL_PROPERTY
Conf_Id
SciTegic.value.IntegerValue
538

@<SCITEGIC>MOL_PROPERTY
Probability
SciTegic.value.DoubleValue
1.33

@<SCITEGIC>MOL_PROPERTY
G
SciTegic.value.DoubleValue
536.772

@<SCITEGIC>MOL_PROPERTY
E
SciTegic.value.DoubleValue
344.690

@<SCITEGIC>MOL_PROPERTY
-TS
SciTegic.value.DoubleValue
192.083

@<SCITEGIC>MOL_PROPERTY
U+W
SciTegic.value.DoubleValue
215.919

@<SCITEGIC>MOL_PROPERTY
U
SciTegic.value.DoubleValue
310.583

@<SCITEGIC>MOL_PROPERTY
W
SciTegic.value.DoubleValue
-94.665

@<SCITEGIC>MOL_PROPERTY
W(PB)
SciTegic.value.DoubleValue
-100.691

@<SCITEGIC>MOL_PROPERTY
W(SA)
SciTegic.value.DoubleValue
6.026

@<SCITEGIC>MOL_PROPERTY
Valence
SciTegic.value.DoubleValue
149.393

@<SCITEGIC>MOL_PROPERTY
Coulomb
SciTegic.value.DoubleValue
185.963

@<SCITEGIC>MOL_PROPERTY
VdW
SciTegic.value.DoubleValue
-24.773

@<SCITEGIC>MOL_PROPERTY
VdW6
SciTegic.value.DoubleValue
-176.797

@<SCITEGIC>MOL_PROPERTY
VdW12
SciTegic.value.DoubleValue
152.024

@<SCITEGIC>MOL_PROPERTY
Bond
SciTegic.value.DoubleValue
4.550

@<SCITEGIC>MOL_PROPERTY
Angle
SciTegic.value.DoubleValue
12.272

@<SCITEGIC>MOL_PROPERTY
Pdih
SciTegic.value.DoubleValue
132.571

@<SCITEGIC>MOL_PROPERTY
Idih
SciTegic.value.DoubleValue
0.000

@<SCITEGIC>MOL_PROPERTY
Tether
SciTegic.value.DoubleValue
0.000

@<TRIPOS>MOLECULE
CD_guest-s10_fast_vm2_rndm.mol2 : feprocess host+ligand conformer 6
         146         151           2
SMALL
USER_CHARGES
 
@<TRIPOS>ATOM
       1    C1      16.255430   15.182509   21.207547 C.3        1 MOL1         0.2972
       2    H1      15.200861   14.937916   21.027006 H          1 MOL1         0.0751
       3    O1      16.434535   16.586636   21.480716 O.3        1 MOL1        -0.3740
       4    C2      16.763781   14.394662   22.438868 C.3        1 MOL1         0.1003
       5    H2      16.621238   13.326681   22.228201 H          1 MOL1         0.0783
       6    O2      16.008349   14.753477   23.607634 O.3        1 MOL1        -0.5519
       7    H3      15.633275   15.653434   23.444098 H          1 MOL1         0.3769
       8    C3      18.272700   14.636775   22.679757 C.3        1 MOL1         0.1053
       9    H4      18.403082   15.680119   22.988280 H          1 MOL1         0.0783
      10    O3      18.716538   13.762835   23.722762 O.3        1 MOL1        -0.5519
      11    H5      17.993742   13.783690   24.390885 H          1 MOL1         0.3769
      12    C4      19.092939   14.417720   21.381046 C.3        1 MOL1         0.1018
      13    H6      19.134447   13.344127   21.155844 H          1 MOL1         0.0783
      14    C5      18.467885   15.167019   20.174629 C.3        1 MOL1         0.1043
      15    H7      18.566331   16.243680   20.358033 H          1 MOL1         0.0783
      16    O4      17.062720   14.831563   20.062885 O.3        1 MOL1        -0.3740
      17    C6      19.167276   14.872140   18.823700 C.3        1 MOL1         0.0138
      18    H8      20.096722   15.455033   18.779184 H          1 MOL1         0.0794
      19    H9      18.523331   15.229039   18.009059 H          1 MOL1         0.0794
      20    O5      19.464531   13.482752   18.642703 O.3        1 MOL1        -0.5486
      21    H10     20.200396   13.259044   19.253250 H          1 MOL1         0.3769
      22    C7      14.637948   20.280221   20.792097 C.3        1 MOL1         0.2972
      23    H11     13.967678   21.093878   20.486271 H          1 MOL1         0.0751
      24    O6      15.873579   20.779879   21.343595 O.3        1 MOL1        -0.3740
      25    C8      13.974963   19.417096   21.894900 C.3        1 MOL1         0.1003
      26    H12     13.041270   19.009370   21.486185 H          1 MOL1         0.0783
      27    O7      13.684343   20.219896   23.051279 O.3        1 MOL1        -0.5519
      28    H13     14.446326   20.838607   23.174650 H          1 MOL1         0.3769
      29    C9      14.892896   18.232285   22.284293 C.3        1 MOL1         0.1053
      30    H14     15.773441   18.646355   22.788608 H          1 MOL1         0.0783
      31    O8      14.204946   17.352500   23.179292 O.3        1 MOL1        -0.5519
      32    H15     13.770642   17.941114   23.836006 H          1 MOL1         0.3769
      33    C10     15.367607   17.446628   21.036256 C.3        1 MOL1         0.1018
      34    H16     14.511458   16.878953   20.648663 H          1 MOL1         0.0783
      35    C11     15.909792   18.380237   19.916577 C.3        1 MOL1         0.1043
      36    H17     16.843382   18.839247   20.258581 H          1 MOL1         0.0783
      37    O9      14.938471   19.422608   19.668797 O.3        1 MOL1        -0.3740
      38    C12     16.233608   17.678935   18.572486 C.3        1 MOL1         0.0138
      39    H18     17.267240   17.313538   18.611282 H          1 MOL1         0.0794
      40    H19     16.191693   18.427224   17.769816 H          1 MOL1         0.0794
      41    O10     15.354181   16.589736   18.273432 O.3        1 MOL1        -0.5486
      42    H20     15.715249   15.799743   18.737724 H          1 MOL1         0.3769
      43    C13     18.385753   24.053490   21.313338 C.3        1 MOL1         0.2972
      44    H21     18.856895   25.041288   21.230564 H          1 MOL1         0.0751
      45    O11     19.368416   23.007357   21.472628 O.3        1 MOL1        -0.3740
      46    C14     17.398945   24.009618   22.509685 C.3        1 MOL1         0.1003
      47    H22     16.621584   24.761323   22.320497 H          1 MOL1         0.0783
      48    O12     18.059749   24.317052   23.747184 O.3        1 MOL1        -0.5519
      49    H23     18.829471   23.700501   23.832332 H          1 MOL1         0.3769
      50    C15     16.714296   22.625264   22.595688 C.3        1 MOL1         0.1053
      51    H24     17.482038   21.895894   22.870314 H          1 MOL1         0.0783
      52    O13     15.698786   22.640636   23.604459 O.3        1 MOL1        -0.5519
      53    H25     16.104872   23.101103   24.372155 H          1 MOL1         0.3769
      54    C16     16.096525   22.199209   21.240022 C.3        1 MOL1         0.1018
      55    H26     15.158204   22.753681   21.107600 H          1 MOL1         0.0783
      56    C17     17.041140   22.453437   20.029122 C.3        1 MOL1         0.1043
      57    H27     17.842069   21.702815   20.053498 H          1 MOL1         0.0783
      58    O14     17.626705   23.774915   20.120292 O.3        1 MOL1        -0.3740
      59    C18     16.342156   22.341548   18.652247 C.3        1 MOL1         0.0138
      60    H28     16.147851   21.282955   18.439951 H          1 MOL1         0.0794
      61    H29     17.034266   22.702126   17.879544 H          1 MOL1         0.0794
      62    O15     15.115725   23.081953   18.604106 O.3        1 MOL1        -0.5486
      63    H30     14.756157   23.002668   17.693731 H          1 MOL1         0.3769
      64    C19     23.468125   22.468575   21.960907 C.3        1 MOL1         0.2972
      65    H31     24.535652   22.603560   22.177271 H          1 MOL1         0.0751
      66    O16     23.218851   21.213069   21.295252 O.3        1 MOL1        -0.3740
      67    C20     22.645705   22.531902   23.274642 C.3        1 MOL1         0.1003
      68    H32     22.834475   23.517521   23.720139 H          1 MOL1         0.0783
      69    O17     23.031068   21.512343   24.210366 O.3        1 MOL1        -0.5519
      70    H33     23.912673   21.170999   23.922985 H          1 MOL1         0.3769
      71    C21     21.133813   22.414748   22.988117 C.3        1 MOL1         0.1053
      72    H34     20.946101   21.402927   22.607882 H          1 MOL1         0.0783
      73    O18     20.422335   22.626978   24.212729 O.3        1 MOL1        -0.5519
      74    H35     21.092784   22.438666   24.910931 H          1 MOL1         0.3769
      75    C22     20.674576   23.430350   21.915676 C.3        1 MOL1         0.1018
      76    H36     20.648470   24.428100   22.374154 H          1 MOL1         0.0783
      77    C23     21.615639   23.441239   20.677440 C.3        1 MOL1         0.1043
      78    H37     21.468288   22.502991   20.126668 H          1 MOL1         0.0783
      79    O19     22.998989   23.530369   21.103079 O.3        1 MOL1        -0.3740
      80    C24     21.334411   24.603224   19.694528 C.3        1 MOL1         0.0138
      81    H38     20.384556   24.403186   19.180346 H          1 MOL1         0.0794
      82    H39     22.122931   24.613028   18.930097 H          1 MOL1         0.0794
      83    O20     21.269232   25.871263   20.359795 O.3        1 MOL1        -0.5486
      84    H40     21.172962   26.564337   19.670572 H          1 MOL1         0.3769
      85    C25     25.096805   17.624880   20.502489 C.3        1 MOL1         0.2972
      86    H41     25.733020   16.788024   20.186857 H          1 MOL1         0.0751
      87    O21     23.778415   17.173884   20.877436 O.3        1 MOL1        -0.3740
      88    C26     25.745013   18.421536   21.665464 C.3        1 MOL1         0.1003
      89    H42     26.665510   18.870322   21.269485 H          1 MOL1         0.0783
      90    O22     26.088418   17.581729   22.777134 O.3        1 MOL1        -0.5519
      91    H43     25.238248   17.238253   23.150943 H          1 MOL1         0.3769
      92    C27     24.814323   19.573682   22.115118 C.3        1 MOL1         0.1053
      93    H44     23.905202   19.130996   22.545176 H          1 MOL1         0.0783
      94    O23     25.490561   20.352400   23.109043 O.3        1 MOL1        -0.5519
      95    H45     25.965913   19.694835   23.666450 H          1 MOL1         0.3769
      96    C28     24.394548   20.465814   20.912737 C.3        1 MOL1         0.1018
      97    H46     25.225413   21.134563   20.651814 H          1 MOL1         0.0783
      98    C29     24.001503   19.646279   19.650392 C.3        1 MOL1         0.1043
      99    H47     23.002740   19.226620   19.815649 H          1 MOL1         0.0783
     100    O24     24.936450   18.560904   19.417349 O.3        1 MOL1        -0.3740
     101    C30     23.925118   20.511544   18.369897 C.3        1 MOL1         0.0138
     102    H48     23.099897   21.227424   18.483576 H          1 MOL1         0.0794
     103    H49     23.680291   19.859837   17.520587 H          1 MOL1         0.0794
     104    O25     25.147911   21.216519   18.119709 O.3        1 MOL1        -0.5486
     105    H50     25.038646   21.714942   17.280699 H          1 MOL1         0.3769
     106    C31     21.396901   14.088740   22.133382 C.3        1 MOL1         0.2972
     107    H51     20.942749   13.159497   22.500697 H          1 MOL1         0.0751
     108    O26     20.410470   14.972581   21.561761 O.3        1 MOL1        -0.3740
     109    C32     22.122729   14.821263   23.288979 C.3        1 MOL1         0.1003
     110    H52     22.901280   14.144593   23.664759 H          1 MOL1         0.0783
     111    O27     21.218308   15.148926   24.357515 O.3        1 MOL1        -0.5519
     112    H53     20.409925   14.594556   24.234277 H          1 MOL1         0.3769
     113    C33     22.803053   16.110224   22.781097 C.3        1 MOL1         0.1053
     114    H54     22.009708   16.812172   22.513344 H          1 MOL1         0.0783
     115    O28     23.588221   16.665255   23.839236 O.3        1 MOL1        -0.5519
     116    H55     23.008100   16.606212   24.631863 H          1 MOL1         0.3769
     117    C34     23.663409   15.883395   21.511819 C.3        1 MOL1         0.1018
     118    H56     24.638236   15.474210   21.807936 H          1 MOL1         0.0783
     119    C35     22.980203   14.948343   20.471577 C.3        1 MOL1         0.1043
     120    H57     22.191022   15.523215   19.970202 H          1 MOL1         0.0783
     121    O29     22.379160   13.797843   21.118060 O.3        1 MOL1        -0.3740
     122    C36     23.944033   14.447810   19.369490 C.3        1 MOL1         0.0138
     123    H58     24.201468   15.296193   18.721042 H          1 MOL1         0.0794
     124    H59     23.415118   13.711806   18.749191 H          1 MOL1         0.0794
     125    O30     25.138489   13.873800   19.914760 O.3        1 MOL1        -0.5486
     126    H60     25.663425   13.511819   19.167587 H          1 MOL1         0.3769
     127    N1      19.481526   19.996861   25.022511 N.4        1 MOL1        -0.5937
     128    H1      19.215283   20.052135   26.008872 H          1 MOL1         0.3684
     129    H2      19.653025   20.958553   24.695029 H          1 MOL1         0.3684
     130    H3      20.371024   19.493988   24.967138 H          1 MOL1         0.3684
     131    C1      18.417253   19.330739   24.198787 C.3        1 MOL1         0.1270
     132    H4      17.512668   19.934228   24.326540 H          1 MOL1         0.0960
     133    C2      18.115306   17.919123   24.730791 C.3        1 MOL1        -0.2382
     134    H5      17.332668   17.434450   24.135321 H          1 MOL1         0.1009
     135    H6      17.756998   17.968060   25.766119 H          1 MOL1         0.1009
     136    H7      19.006993   17.280127   24.716994 H          1 MOL1         0.1009
     137    C3      18.758790   19.330229   22.690999 C.3        1 MOL1        -0.1392
     138    H8      17.899861   18.935335   22.142797 H          1 MOL1         0.0998
     139    H9      18.885638   20.363427   22.350010 H          1 MOL1         0.0998
     140    C4      20.013357   18.520939   22.296767 C.3        1 MOL1        -0.1302
     141    H10     19.856070   17.460398   22.529058 H          1 MOL1         0.0998
     142    H11     20.884215   18.853754   22.878185 H          1 MOL1         0.0998
     143    C5      20.326190   18.667982   20.793112 C.3        1 MOL1        -0.2317
     144    H12     21.154862   18.008358   20.506985 H          1 MOL1         0.1009
     145    H13     20.613647   19.700141   20.552453 H          1 MOL1         0.1009
     146    H14     19.458254   18.403216   20.177406 H          1 MOL1         0.1009
@<TRIPOS>BOND
    1     1     2    1
    2     1     3    1
    3     1     4    1
    4     4     5    1
    5     4     6    1
    6     6     7    1
    7     4     8    1
    8     8     9    1
    9     8    10    1
   10    10    11    1
   11     8    12    1
   12    12    13    1
   13    12    14    1
   14    14    15    1
   15     1    16    1
   16    14    16    1
   17    14    17    1
   18    17    18    1
   19    17    19    1
   20    17    20    1
   21    20    21    1
   22    22    23    1
   23    22    24    1
   24    22    25    1
   25    25    26    1
   26    25    27    1
   27    27    28    1
   28    25    29    1
   29    29    30    1
   30    29    31    1
   31    31    32    1
   32     3    33    1
   33    29    33    1
   34    33    34    1
   35    33    35    1
   36    35    36    1
   37    22    37    1
   38    35    37    1
   39    35    38    1
   40    38    39    1
   41    38    40    1
   42    38    41    1
   43    41    42    1
   44    43    44    1
   45    43    45    1
   46    43    46    1
   47    46    47    1
   48    46    48    1
   49    48    49    1
   50    46    50    1
   51    50    51    1
   52    50    52    1
   53    52    53    1
   54    24    54    1
   55    50    54    1
   56    54    55    1
   57    54    56    1
   58    56    57    1
   59    43    58    1
   60    56    58    1
   61    56    59    1
   62    59    60    1
   63    59    61    1
   64    59    62    1
   65    62    63    1
   66    64    65    1
   67    64    66    1
   68    64    67    1
   69    67    68    1
   70    67    69    1
   71    69    70    1
   72    67    71    1
   73    71    72    1
   74    71    73    1
   75    73    74    1
   76    45    75    1
   77    71    75    1
   78    75    76    1
   79    75    77    1
   80    77    78    1
   81    64    79    1
   82    77    79    1
   83    77    80    1
   84    80    81    1
   85    80    82    1
   86    80    83    1
   87    83    84    1
   88    85    86    1
   89    85    87    1
   90    85    88    1
   91    88    89    1
   92    88    90    1
   93    90    91    1
   94    88    92    1
   95    92    93    1
   96    92    94    1
   97    94    95    1
   98    66    96    1
   99    92    96    1
  100    96    97    1
  101    96    98    1
  102    98    99    1
  103    85   100    1
  104    98   100    1
  105    98   101    1
  106   101   102    1
  107   101   103    1
  108   101   104    1
  109   104   105    1
  110   106   107    1
  111    12   108    1
  112   106   108    1
  113   106   109    1
  114   109   110    1
  115   109   111    1
  116   111   112    1
  117   109   113    1
  118   113   114    1
  119   113   115    1
  120   115   116    1
  121    87   117    1
  122   113   117    1
  123   117   118    1
  124   117   119    1
  125   119   120    1
  126   106   121    1
  127   119   121    1
  128   119   122    1
  129   122   123    1
  130   122   124    1
  131   122   125    1
  132   125   126    1
  133   127   128    1
  134   127   129    1
  135   127   130    1
  136   127   131    1
  137   131   132    1
  138   131   133    1
  139   133   134    1
  140   133   135    1
  141   133   136    1
  142   131   137    1
  143   137   138    1
  144   137   139    1
  145   137   140    1
  146   140   141    1
  147   140   142    1
  148   140   143    1
  149   143   144    1
  150   143   145    1
  151   143   146    1
@<TRIPOS>SUBSTRUCTURE
       1 MOL1            1 RESIDUE      1      MOL     
       2 MOL1          146 RESIDUE      1      MOL     
@<SCITEGIC>MOL_PROPERTY
feprocess Rank
SciTegic.value.IntegerValue
6

@<SCITEGIC>MOL_PROPERTY
Conf_Id
SciTegic.value.IntegerValue
85

@<SCITEGIC>MOL_PROPERTY
Probability
SciTegic.value.DoubleValue
0.88

@<SCITEGIC>MOL_PROPERTY
G
SciTegic.value.DoubleValue
537.021

@<SCITEGIC>MOL_PROPERTY
E
SciTegic.value.DoubleValue
344.250

@<SCITEGIC>MOL_PROPERTY
-TS
SciTegic.value.DoubleValue
192.771

@<SCITEGIC>MOL_PROPERTY
U+W
SciTegic.value.DoubleValue
215.479

@<SCITEGIC>MOL_PROPERTY
U
SciTegic.value.DoubleValue
302.790

@<SCITEGIC>MOL_PROPERTY
W
SciTegic.value.DoubleValue
-87.311

@<SCITEGIC>MOL_PROPERTY
W(PB)
SciTegic.value.DoubleValue
-93.407

@<SCITEGIC>MOL_PROPERTY
W(SA)
SciTegic.value.DoubleValue
6.096

@<SCITEGIC>MOL_PROPERTY
Valence
SciTegic.value.DoubleValue
147.531

@<SCITEGIC>MOL_PROPERTY
Coulomb
SciTegic.value.DoubleValue
178.378

@<SCITEGIC>MOL_PROPERTY
VdW
SciTegic.value.DoubleValue
-23.119

@<SCITEGIC>MOL_PROPERTY
VdW6
SciTegic.value.DoubleValue
-175.311

@<SCITEGIC>MOL_PROPERTY
VdW12
SciTegic.value.DoubleValue
152.192

@<SCITEGIC>MOL_PROPERTY
Bond
SciTegic.value.DoubleValue
4.626

@<SCITEGIC>MOL_PROPERTY
Angle
SciTegic.value.DoubleValue
12.181

@<SCITEGIC>MOL_PROPERTY
Pdih
SciTegic.value.DoubleValue
130.723

@<SCITEGIC>MOL_PROPERTY
Idih
SciTegic.value.DoubleValue
0.000

@<SCITEGIC>MOL_PROPERTY
Tether
SciTegic.value.DoubleValue
0.000

@<TRIPOS>MOLECULE
CD_guest-s10_fast_vm2_rndm.mol2 : feprocess host+ligand conformer 7
         146         151           2
SMALL
USER_CHARGES
 
@<TRIPOS>ATOM
       1    C1      16.395920   15.368762   22.141343 C.3        1 MOL1         0.2972
       2    H1      15.352580   15.304621   22.476862 H          1 MOL1         0.0751
       3    O1      16.708825   16.672751   21.619350 O.3        1 MOL1        -0.3740
       4    C2      17.351805   15.081624   23.322710 C.3        1 MOL1         0.1003
       5    H2      17.147245   14.061758   23.673761 H          1 MOL1         0.0783
       6    O2      17.135770   16.013254   24.396652 O.3        1 MOL1        -0.5519
       7    H3      16.378862   16.591267   24.131270 H          1 MOL1         0.3769
       8    C3      18.822673   15.153610   22.859878 C.3        1 MOL1         0.1053
       9    H4      19.037145   16.199305   22.611992 H          1 MOL1         0.0783
      10    O3      19.670045   14.732517   23.932375 O.3        1 MOL1        -0.5519
      11    H5      19.285353   15.157658   24.731570 H          1 MOL1         0.3769
      12    C4      19.088699   14.304378   21.591199 C.3        1 MOL1         0.1018
      13    H6      19.189379   13.250273   21.881456 H          1 MOL1         0.0783
      14    C5      17.981738   14.461511   20.508365 C.3        1 MOL1         0.1043
      15    H7      18.116998   15.442888   20.037172 H          1 MOL1         0.0783
      16    O4      16.658880   14.404029   21.101713 O.3        1 MOL1        -0.3740
      17    C6      18.061402   13.404606   19.381124 C.3        1 MOL1         0.0138
      18    H8      18.943806   13.619557   18.763426 H          1 MOL1         0.0794
      19    H9      17.178805   13.512216   18.736249 H          1 MOL1         0.0794
      20    O5      18.142611   12.070225   19.896517 O.3        1 MOL1        -0.5486
      21    H10     18.104510   11.452729   19.133626 H          1 MOL1         0.3769
      22    C7      14.786720   20.262100   20.746840 C.3        1 MOL1         0.2972
      23    H11     14.066341   21.025262   20.425784 H          1 MOL1         0.0751
      24    O6      16.076253   20.830635   21.054184 O.3        1 MOL1        -0.3740
      25    C8      14.286416   19.543268   22.027385 C.3        1 MOL1         0.1003
      26    H12     13.330721   19.061450   21.783181 H          1 MOL1         0.0783
      27    O7      14.081281   20.478173   23.098631 O.3        1 MOL1        -0.5519
      28    H13     14.807078   21.150789   23.050240 H          1 MOL1         0.3769
      29    C9      15.283065   18.437356   22.455930 C.3        1 MOL1         0.1053
      30    H14     16.223680   18.918312   22.757052 H          1 MOL1         0.0783
      31    O8      14.743059   17.703592   23.560152 O.3        1 MOL1        -0.5519
      32    H15     14.360367   18.387982   24.154674 H          1 MOL1         0.3769
      33    C10     15.580162   17.487836   21.268122 C.3        1 MOL1         0.1018
      34    H16     14.687142   16.882504   21.063434 H          1 MOL1         0.0783
      35    C11     15.969494   18.264795   19.982801 C.3        1 MOL1         0.1043
      36    H17     16.929076   18.764446   20.157096 H          1 MOL1         0.0783
      37    O9      14.959905   19.265569   19.713134 O.3        1 MOL1        -0.3740
      38    C12     16.153763   17.369853   18.729376 C.3        1 MOL1         0.0138
      39    H18     17.197332   17.031258   18.698632 H          1 MOL1         0.0794
      40    H19     15.991784   17.982662   17.832623 H          1 MOL1         0.0794
      41    O10     15.283354   16.231024   18.713631 O.3        1 MOL1        -0.5486
      42    H20     15.571558   15.631720   19.439280 H          1 MOL1         0.3769
      43    C13     18.468605   24.161408   20.711655 C.3        1 MOL1         0.2972
      44    H21     18.930797   25.140759   20.532909 H          1 MOL1         0.0751
      45    O11     19.466816   23.150128   20.979817 O.3        1 MOL1        -0.3740
      46    C14     17.437865   24.229398   21.871634 C.3        1 MOL1         0.1003
      47    H22     16.628069   24.893882   21.542871 H          1 MOL1         0.0783
      48    O12     18.004194   24.761571   23.077312 O.3        1 MOL1        -0.5519
      49    H23     18.668262   24.099331   23.392455 H          1 MOL1         0.3769
      50    C15     16.830107   22.829149   22.120638 C.3        1 MOL1         0.1053
      51    H24     17.631977   22.161501   22.462149 H          1 MOL1         0.0783
      52    O13     15.813850   22.913017   23.124708 O.3        1 MOL1        -0.5519
      53    H25     16.193256   23.485744   23.828073 H          1 MOL1         0.3769
      54    C16     16.233276   22.242367   20.818153 C.3        1 MOL1         0.1018
      55    H26     15.274262   22.740739   20.625221 H          1 MOL1         0.0783
      56    C17     17.171603   22.407310   19.587887 C.3        1 MOL1         0.1043
      57    H27     17.990741   21.684768   19.686212 H          1 MOL1         0.0783
      58    O14     17.731759   23.745134   19.542473 O.3        1 MOL1        -0.3740
      59    C18     16.467469   22.124694   18.239259 C.3        1 MOL1         0.0138
      60    H28     16.252981   21.049629   18.176096 H          1 MOL1         0.0794
      61    H29     17.161766   22.367202   17.423677 H          1 MOL1         0.0794
      62    O15     15.252081   22.871163   18.097478 O.3        1 MOL1        -0.5486
      63    H30     14.883347   22.673493   17.208961 H          1 MOL1         0.3769
      64    C19     23.309542   22.489165   22.391873 C.3        1 MOL1         0.2972
      65    H31     24.309468   22.572512   22.836126 H          1 MOL1         0.0751
      66    O16     23.148018   21.247526   21.677145 O.3        1 MOL1        -0.3740
      67    C20     22.222541   22.579037   23.493575 C.3        1 MOL1         0.1003
      68    H32     22.348668   23.549212   23.991952 H          1 MOL1         0.0783
      69    O17     22.352008   21.523655   24.463482 O.3        1 MOL1        -0.5519
      70    H33     23.303399   21.254360   24.463442 H          1 MOL1         0.3769
      71    C21     20.809976   22.529591   22.873027 C.3        1 MOL1         0.1053
      72    H34     20.677518   21.532701   22.440410 H          1 MOL1         0.0783
      73    O18     19.848355   22.744637   23.911734 O.3        1 MOL1        -0.5519
      74    H35     20.316881   22.514518   24.744541 H          1 MOL1         0.3769
      75    C22     20.632636   23.557624   21.728103 C.3        1 MOL1         0.1018
      76    H36     20.518325   24.559383   22.162692 H          1 MOL1         0.0783
      77    C23     21.832323   23.544538   20.739139 C.3        1 MOL1         0.1043
      78    H37     21.779047   22.618607   20.151928 H          1 MOL1         0.0783
      79    O19     23.088279   23.572332   21.463828 O.3        1 MOL1        -0.3740
      80    C24     21.816318   24.724188   19.737655 C.3        1 MOL1         0.0138
      81    H38     20.996009   24.564000   19.024915 H          1 MOL1         0.0794
      82    H39     22.753447   24.710527   19.165139 H          1 MOL1         0.0794
      83    O20     21.649965   25.988330   20.392161 O.3        1 MOL1        -0.5486
      84    H40     21.728882   26.690083   19.709479 H          1 MOL1         0.3769
      85    C25     25.116207   17.606892   21.316340 C.3        1 MOL1         0.2972
      86    H41     25.844926   16.803121   21.150778 H          1 MOL1         0.0751
      87    O21     23.788866   17.087112   21.526612 O.3        1 MOL1        -0.3740
      88    C26     25.503523   18.408729   22.580968 C.3        1 MOL1         0.1003
      89    H42     26.503947   18.829607   22.415789 H          1 MOL1         0.0783
      90    O22     25.530779   17.542399   23.726931 O.3        1 MOL1        -0.5519
      91    H43     24.858383   16.836128   23.566657 H          1 MOL1         0.3769
      92    C27     24.520717   19.578956   22.819339 C.3        1 MOL1         0.1053
      93    H44     23.551652   19.145605   23.088118 H          1 MOL1         0.0783
      94    O23     25.006578   20.373868   23.906570 O.3        1 MOL1        -0.5519
      95    H45     25.343678   19.722235   24.562895 H          1 MOL1         0.3769
      96    C28     24.331399   20.435663   21.535485 C.3        1 MOL1         0.1018
      97    H46     25.225040   21.053777   21.381113 H          1 MOL1         0.0783
      98    C29     24.091005   19.562042   20.273975 C.3        1 MOL1         0.1043
      99    H47     23.095819   19.107844   20.363097 H          1 MOL1         0.0783
     100    O24     25.085309   18.510989   20.192531 O.3        1 MOL1        -0.3740
     101    C30     24.102438   20.366365   18.949786 C.3        1 MOL1         0.0138
     102    H48     23.171252   20.944822   18.884396 H          1 MOL1         0.0794
     103    H49     24.103596   19.659275   18.109904 H          1 MOL1         0.0794
     104    O25     25.225454   21.249427   18.846814 O.3        1 MOL1        -0.5486
     105    H50     25.068246   21.999089   19.460393 H          1 MOL1         0.3769
     106    C31     21.307447   13.893776   20.591280 C.3        1 MOL1         0.2972
     107    H51     20.859037   12.956894   20.236473 H          1 MOL1         0.0751
     108    O26     20.300075   14.834266   21.018738 O.3        1 MOL1        -0.3740
     109    C32     22.311670   13.637844   21.749037 C.3        1 MOL1         0.1003
     110    H52     23.115365   13.007195   21.347135 H          1 MOL1         0.0783
     111    O27     21.699326   12.959638   22.856158 O.3        1 MOL1        -0.5519
     112    H53     20.997921   13.560745   23.213248 H          1 MOL1         0.3769
     113    C33     22.940058   14.972109   22.215653 C.3        1 MOL1         0.1053
     114    H54     22.141496   15.580923   22.655390 H          1 MOL1         0.0783
     115    O28     23.952329   14.721550   23.196552 O.3        1 MOL1        -0.5519
     116    H55     23.567420   14.048101   23.800123 H          1 MOL1         0.3769
     117    C34     23.543633   15.759213   21.027126 C.3        1 MOL1         0.1018
     118    H56     24.467614   15.253459   20.717583 H          1 MOL1         0.0783
     119    C35     22.565669   15.849266   19.819881 C.3        1 MOL1         0.1043
     120    H57     21.734519   16.505643   20.104177 H          1 MOL1         0.0783
     121    O29     22.049186   14.526331   19.524727 O.3        1 MOL1        -0.3740
     122    C36     23.168082   16.439296   18.518999 C.3        1 MOL1         0.0138
     123    H58     23.034426   17.527669   18.535849 H          1 MOL1         0.0794
     124    H59     22.588598   16.063554   17.665127 H          1 MOL1         0.0794
     125    O30     24.554823   16.130842   18.343350 O.3        1 MOL1        -0.5486
     126    H60     25.060087   16.825070   18.825047 H          1 MOL1         0.3769
     127    N1      19.963717   19.805568   24.713237 N.4        1 MOL1        -0.5937
     128    H1      20.824911   20.375884   24.707563 H          1 MOL1         0.3684
     129    H2      19.666510   19.706658   25.687371 H          1 MOL1         0.3684
     130    H3      19.245910   20.342883   24.216667 H          1 MOL1         0.3684
     131    C1      20.220218   18.469575   24.074782 C.3        1 MOL1         0.1270
     132    H4      19.291485   17.892856   24.140429 H          1 MOL1         0.0960
     133    C2      21.313018   17.726967   24.860463 C.3        1 MOL1        -0.2382
     134    H5      21.017651   17.602612   25.909300 H          1 MOL1         0.1009
     135    H6      22.263228   18.274288   24.838810 H          1 MOL1         0.1009
     136    H7      21.486544   16.727178   24.448971 H          1 MOL1         0.1009
     137    C3      20.613246   18.604794   22.587583 C.3        1 MOL1        -0.1392
     138    H8      21.461120   19.291665   22.495852 H          1 MOL1         0.0998
     139    H9      20.958877   17.632509   22.213307 H          1 MOL1         0.0998
     140    C4      19.451688   19.096652   21.692688 C.3        1 MOL1        -0.1302
     141    H10     19.031791   20.036766   22.073758 H          1 MOL1         0.0998
     142    H11     18.638864   18.362054   21.719703 H          1 MOL1         0.0998
     143    C5      19.913959   19.304490   20.234995 C.3        1 MOL1        -0.2317
     144    H12     20.697021   20.072109   20.178277 H          1 MOL1         0.1009
     145    H13     19.079084   19.631532   19.603966 H          1 MOL1         0.1009
     146    H14     20.309841   18.374147   19.809631 H          1 MOL1         0.1009
@<TRIPOS>BOND
    1     1     2    1
    2     1     3    1
    3     1     4    1
    4     4     5    1
    5     4     6    1
    6     6     7    1
    7     4     8    1
    8     8     9    1
    9     8    10    1
   10    10    11    1
   11     8    12    1
   12    12    13    1
   13    12    14    1
   14    14    15    1
   15     1    16    1
   16    14    16    1
   17    14    17    1
   18    17    18    1
   19    17    19    1
   20    17    20    1
   21    20    21    1
   22    22    23    1
   23    22    24    1
   24    22    25    1
   25    25    26    1
   26    25    27    1
   27    27    28    1
   28    25    29    1
   29    29    30    1
   30    29    31    1
   31    31    32    1
   32     3    33    1
   33    29    33    1
   34    33    34    1
   35    33    35    1
   36    35    36    1
   37    22    37    1
   38    35    37    1
   39    35    38    1
   40    38    39    1
   41    38    40    1
   42    38    41    1
   43    41    42    1
   44    43    44    1
   45    43    45    1
   46    43    46    1
   47    46    47    1
   48    46    48    1
   49    48    49    1
   50    46    50    1
   51    50    51    1
   52    50    52    1
   53    52    53    1
   54    24    54    1
   55    50    54    1
   56    54    55    1
   57    54    56    1
   58    56    57    1
   59    43    58    1
   60    56    58    1
   61    56    59    1
   62    59    60    1
   63    59    61    1
   64    59    62    1
   65    62    63    1
   66    64    65    1
   67    64    66    1
   68    64    67    1
   69    67    68    1
   70    67    69    1
   71    69    70    1
   72    67    71    1
   73    71    72    1
   74    71    73    1
   75    73    74    1
   76    45    75    1
   77    71    75    1
   78    75    76    1
   79    75    77    1
   80    77    78    1
   81    64    79    1
   82    77    79    1
   83    77    80    1
   84    80    81    1
   85    80    82    1
   86    80    83    1
   87    83    84    1
   88    85    86    1
   89    85    87    1
   90    85    88    1
   91    88    89    1
   92    88    90    1
   93    90    91    1
   94    88    92    1
   95    92    93    1
   96    92    94    1
   97    94    95    1
   98    66    96    1
   99    92    96    1
  100    96    97    1
  101    96    98    1
  102    98    99    1
  103    85   100    1
  104    98   100    1
  105    98   101    1
  106   101   102    1
  107   101   103    1
  108   101   104    1
  109   104   105    1
  110   106   107    1
  111    12   108    1
  112   106   108    1
  113   106   109    1
  114   109   110    1
  115   109   111    1
  116   111   112    1
  117   109   113    1
  118   113   114    1
  119   113   115    1
  120   115   116    1
  121    87   117    1
  122   113   117    1
  123   117   118    1
  124   117   119    1
  125   119   120    1
  126   106   121    1
  127   119   121    1
  128   119   122    1
  129   122   123    1
  130   122   124    1
  131   122   125    1
  132   125   126    1
  133   127   128    1
  134   127   129    1
  135   127   130    1
  136   127   131    1
  137   131   132    1
  138   131   133    1
  139   133   134    1
  140   133   135    1
  141   133   136    1
  142   131   137    1
  143   137   138    1
  144   137   139    1
  145   137   140    1
  146   140   141    1
  147   140   142    1
  148   140   143    1
  149   143   144    1
  150   143   145    1
  151   143   146    1
@<TRIPOS>SUBSTRUCTURE
       1 MOL1            1 RESIDUE      1      MOL     
       2 MOL1          146 RESIDUE      1      MOL     
@<SCITEGIC>MOL_PROPERTY
feprocess Rank
SciTegic.value.IntegerValue
7

@<SCITEGIC>MOL_PROPERTY
Conf_Id
SciTegic.value.IntegerValue
841

@<SCITEGIC>MOL_PROPERTY
Probability
SciTegic.value.DoubleValue
0.84

@<SCITEGIC>MOL_PROPERTY
G
SciTegic.value.DoubleValue
537.044

@<SCITEGIC>MOL_PROPERTY
E
SciTegic.value.DoubleValue
343.882

@<SCITEGIC>MOL_PROPERTY
-TS
SciTegic.value.DoubleValue
193.162

@<SCITEGIC>MOL_PROPERTY
U+W
SciTegic.value.DoubleValue
215.111

@<SCITEGIC>MOL_PROPERTY
U
SciTegic.value.DoubleValue
302.589

@<SCITEGIC>MOL_PROPERTY
W
SciTegic.value.DoubleValue
-87.478

@<SCITEGIC>MOL_PROPERTY
W(PB)
SciTegic.value.DoubleValue
-93.507

@<SCITEGIC>MOL_PROPERTY
W(SA)
SciTegic.value.DoubleValue
6.029

@<SCITEGIC>MOL_PROPERTY
Valence
SciTegic.value.DoubleValue
147.852

@<SCITEGIC>MOL_PROPERTY
Coulomb
SciTegic.value.DoubleValue
178.743

@<SCITEGIC>MOL_PROPERTY
VdW
SciTegic.value.DoubleValue
-24.006

@<SCITEGIC>MOL_PROPERTY
VdW6
SciTegic.value.DoubleValue
-178.642

@<SCITEGIC>MOL_PROPERTY
VdW12
SciTegic.value.DoubleValue
154.636

@<SCITEGIC>MOL_PROPERTY
Bond
SciTegic.value.DoubleValue
4.619

@<SCITEGIC>MOL_PROPERTY
Angle
SciTegic.value.DoubleValue
12.393

@<SCITEGIC>MOL_PROPERTY
Pdih
SciTegic.value.DoubleValue
130.840

@<SCITEGIC>MOL_PROPERTY
Idih
SciTegic.value.DoubleValue
0.000

@<SCITEGIC>MOL_PROPERTY
Tether
SciTegic.value.DoubleValue
0.000

@<TRIPOS>MOLECULE
CD_guest-s10_fast_vm2_rndm.mol2 : feprocess host+ligand conformer 8
         146         151           2
SMALL
USER_CHARGES
 
@<TRIPOS>ATOM
       1    C1      16.402462   15.370135   22.109096 C.3        1 MOL1         0.2972
       2    H1      15.368656   15.298231   22.470961 H          1 MOL1         0.0751
       3    O1      16.667858   16.651973   21.506771 O.3        1 MOL1        -0.3740
       4    C2      17.393604   15.152686   23.279122 C.3        1 MOL1         0.1003
       5    H2      17.206378   14.149183   23.683089 H          1 MOL1         0.0783
       6    O2      17.209236   16.129009   24.318316 O.3        1 MOL1        -0.5519
       7    H3      16.354759   16.591079   24.135901 H          1 MOL1         0.3769
       8    C3      18.851774   15.212029   22.779594 C.3        1 MOL1         0.1053
       9    H4      19.051367   16.247100   22.481661 H          1 MOL1         0.0783
      10    O3      19.721133   14.844539   23.854055 O.3        1 MOL1        -0.5519
      11    H5      19.342130   15.298150   24.640371 H          1 MOL1         0.3769
      12    C4      19.100187   14.311975   21.543368 C.3        1 MOL1         0.1018
      13    H6      19.216443   13.271972   21.874885 H          1 MOL1         0.0783
      14    C5      17.965346   14.410839   20.483318 C.3        1 MOL1         0.1043
      15    H7      18.070031   15.374200   19.967997 H          1 MOL1         0.0783
      16    O4      16.661414   14.355351   21.116892 O.3        1 MOL1        -0.3740
      17    C6      18.033891   13.308390   19.399696 C.3        1 MOL1         0.0138
      18    H8      18.897794   13.510128   18.752130 H          1 MOL1         0.0794
      19    H9      17.134308   13.376549   18.773308 H          1 MOL1         0.0794
      20    O5      18.148152   11.997486   19.966928 O.3        1 MOL1        -0.5486
      21    H10     18.103959   11.348847   19.230652 H          1 MOL1         0.3769
      22    C7      14.748709   20.295686   20.908406 C.3        1 MOL1         0.2972
      23    H11     14.024330   21.085936   20.674637 H          1 MOL1         0.0751
      24    O6      16.064512   20.826932   21.157543 O.3        1 MOL1        -0.3740
      25    C8      14.308889   19.535023   22.183554 C.3        1 MOL1         0.1003
      26    H12     13.324581   19.093017   21.981056 H          1 MOL1         0.0783
      27    O7      14.203014   20.433758   23.299610 O.3        1 MOL1        -0.5519
      28    H13     14.894373   21.132587   23.180920 H          1 MOL1         0.3769
      29    C9      15.291772   18.384063   22.507996 C.3        1 MOL1         0.1053
      30    H14     16.255925   18.826072   22.793929 H          1 MOL1         0.0783
      31    O8      14.767315   17.619570   23.598700 O.3        1 MOL1        -0.5519
      32    H15     14.423535   18.290149   24.232126 H          1 MOL1         0.3769
      33    C10     15.518644   17.483339   21.264873 C.3        1 MOL1         0.1018
      34    H16     14.616199   16.884333   21.086379 H          1 MOL1         0.0783
      35    C11     15.836177   18.312003   19.990700 C.3        1 MOL1         0.1043
      36    H17     16.819202   18.779116   20.122474 H          1 MOL1         0.0783
      37    O9      14.839000   19.349098   19.821894 O.3        1 MOL1        -0.3740
      38    C12     15.914341   17.466745   18.694291 C.3        1 MOL1         0.0138
      39    H18     16.893961   16.972127   18.661212 H          1 MOL1         0.0794
      40    H19     15.866439   18.143805   17.831140 H          1 MOL1         0.0794
      41    O10     14.878245   16.481452   18.606014 O.3        1 MOL1        -0.5486
      42    H20     15.089158   15.776445   19.256661 H          1 MOL1         0.3769
      43    C13     18.507538   24.118973   20.615424 C.3        1 MOL1         0.2972
      44    H21     18.961230   25.088092   20.371274 H          1 MOL1         0.0751
      45    O11     19.512892   23.140283   20.960541 O.3        1 MOL1        -0.3740
      46    C14     17.464644   24.256549   21.760634 C.3        1 MOL1         0.1003
      47    H22     16.663165   24.907084   21.386885 H          1 MOL1         0.0783
      48    O12     18.022393   24.850013   22.941647 O.3        1 MOL1        -0.5519
      49    H23     18.675467   24.199776   23.302255 H          1 MOL1         0.3769
      50    C15     16.842356   22.878177   22.087148 C.3        1 MOL1         0.1053
      51    H24     17.632779   22.231436   22.490125 H          1 MOL1         0.0783
      52    O13     15.801727   23.029729   23.058282 O.3        1 MOL1        -0.5519
      53    H25     16.168416   23.639081   23.737015 H          1 MOL1         0.3769
      54    C16     16.273464   22.208176   20.813743 C.3        1 MOL1         0.1018
      55    H26     15.339683   22.718718   20.544940 H          1 MOL1         0.0783
      56    C17     17.264127   22.259808   19.616898 C.3        1 MOL1         0.1043
      57    H27     18.091238   21.574142   19.833781 H          1 MOL1         0.0783
      58    O14     17.792651   23.603108   19.470443 O.3        1 MOL1        -0.3740
      59    C18     16.656543   21.812522   18.264319 C.3        1 MOL1         0.0138
      60    H28     16.589847   20.716779   18.254321 H          1 MOL1         0.0794
      61    H29     17.349415   22.099219   17.462087 H          1 MOL1         0.0794
      62    O15     15.363059   22.376926   18.020022 O.3        1 MOL1        -0.5486
      63    H30     14.699270   21.752341   18.383916 H          1 MOL1         0.3769
      64    C19     23.315385   22.506770   22.429545 C.3        1 MOL1         0.2972
      65    H31     24.311765   22.578409   22.883848 H          1 MOL1         0.0751
      66    O16     23.141574   21.261572   21.724123 O.3        1 MOL1        -0.3740
      67    C20     22.219455   22.623186   23.519551 C.3        1 MOL1         0.1003
      68    H32     22.355912   23.594729   24.012462 H          1 MOL1         0.0783
      69    O17     22.321684   21.570989   24.496255 O.3        1 MOL1        -0.5519
      70    H33     23.265466   21.275868   24.497421 H          1 MOL1         0.3769
      71    C21     20.812464   22.589114   22.887028 C.3        1 MOL1         0.1053
      72    H34     20.664854   21.583655   22.478652 H          1 MOL1         0.0783
      73    O18     19.842934   22.848278   23.908592 O.3        1 MOL1        -0.5519
      74    H35     20.284842   22.601004   24.750840 H          1 MOL1         0.3769
      75    C22     20.658411   23.588107   21.713883 C.3        1 MOL1         0.1018
      76    H36     20.524426   24.599989   22.117855 H          1 MOL1         0.0783
      77    C23     21.874588   23.558444   20.745353 C.3        1 MOL1         0.1043
      78    H37     21.823976   22.627423   20.166067 H          1 MOL1         0.0783
      79    O19     23.119307   23.583660   21.489053 O.3        1 MOL1        -0.3740
      80    C24     21.882770   24.726860   19.730810 C.3        1 MOL1         0.0138
      81    H38     21.074646   24.562888   19.005202 H          1 MOL1         0.0794
      82    H39     22.829881   24.701802   19.175338 H          1 MOL1         0.0794
      83    O20     21.711795   25.999143   20.367845 O.3        1 MOL1        -0.5486
      84    H40     21.806905   26.692787   19.678942 H          1 MOL1         0.3769
      85    C25     25.102987   17.619949   21.331586 C.3        1 MOL1         0.2972
      86    H41     25.833689   16.818654   21.163025 H          1 MOL1         0.0751
      87    O21     23.772837   17.098665   21.518067 O.3        1 MOL1        -0.3740
      88    C26     25.474427   18.403466   22.612700 C.3        1 MOL1         0.1003
      89    H42     26.477095   18.826048   22.466686 H          1 MOL1         0.0783
      90    O22     25.486127   17.521631   23.747183 O.3        1 MOL1        -0.5519
      91    H43     24.812224   16.819833   23.571844 H          1 MOL1         0.3769
      92    C27     24.488889   19.570774   22.853642 C.3        1 MOL1         0.1053
      93    H44     23.514909   19.134567   23.098905 H          1 MOL1         0.0783
      94    O23     24.956259   20.350685   23.959725 O.3        1 MOL1        -0.5519
      95    H45     25.281157   19.690051   24.613106 H          1 MOL1         0.3769
      96    C28     24.320500   20.445067   21.579822 C.3        1 MOL1         0.1018
      97    H46     25.220067   21.058841   21.443247 H          1 MOL1         0.0783
      98    C29     24.088705   19.588732   20.304946 C.3        1 MOL1         0.1043
      99    H47     23.092801   19.133372   20.379525 H          1 MOL1         0.0783
     100    O24     25.084545   18.539366   20.219757 O.3        1 MOL1        -0.3740
     101    C30     24.110751   20.409599   18.991090 C.3        1 MOL1         0.0138
     102    H48     23.173510   20.977164   18.918469 H          1 MOL1         0.0794
     103    H49     24.133233   19.712977   18.142766 H          1 MOL1         0.0794
     104    O25     25.223602   21.308240   18.916248 O.3        1 MOL1        -0.5486
     105    H50     25.048198   22.046540   19.538777 H          1 MOL1         0.3769
     106    C31     21.322981   13.888864   20.544780 C.3        1 MOL1         0.2972
     107    H51     20.890912   12.945539   20.186876 H          1 MOL1         0.0751
     108    O26     20.294585   14.828788   20.923264 O.3        1 MOL1        -0.3740
     109    C32     22.298573   13.649478   21.732013 C.3        1 MOL1         0.1003
     110    H52     23.117286   13.023399   21.353943 H          1 MOL1         0.0783
     111    O27     21.668783   12.971063   22.828763 O.3        1 MOL1        -0.5519
     112    H53     20.979437   13.584276   23.188254 H          1 MOL1         0.3769
     113    C33     22.906057   14.990884   22.205269 C.3        1 MOL1         0.1053
     114    H54     22.092762   15.601533   22.615084 H          1 MOL1         0.0783
     115    O28     23.891042   14.754868   23.217272 O.3        1 MOL1        -0.5519
     116    H55     23.492687   14.084597   23.815594 H          1 MOL1         0.3769
     117    C34     23.541680   15.765810   21.026411 C.3        1 MOL1         0.1018
     118    H56     24.473734   15.257251   20.747146 H          1 MOL1         0.0783
     119    C35     22.596614   15.842508   19.793017 C.3        1 MOL1         0.1043
     120    H57     21.755990   16.497451   20.050921 H          1 MOL1         0.0783
     121    O29     22.093114   14.514779   19.493743 O.3        1 MOL1        -0.3740
     122    C36     23.232743   16.428794   18.506741 C.3        1 MOL1         0.0138
     123    H58     23.107858   17.518482   18.522455 H          1 MOL1         0.0794
     124    H59     22.669778   16.058337   17.639630 H          1 MOL1         0.0794
     125    O30     24.620763   16.109520   18.363085 O.3        1 MOL1        -0.5486
     126    H60     25.120814   16.809334   18.841429 H          1 MOL1         0.3769
     127    N1      19.904267   19.864920   24.664441 N.4        1 MOL1        -0.5937
     128    H1      20.757178   20.447711   24.664093 H          1 MOL1         0.3684
     129    H2      19.598183   19.770487   25.636339 H          1 MOL1         0.3684
     130    H3      19.182212   20.384173   24.155736 H          1 MOL1         0.3684
     131    C1      20.188058   18.525688   24.044109 C.3        1 MOL1         0.1270
     132    H4      19.269850   17.932498   24.113453 H          1 MOL1         0.0960
     133    C2      21.290852   17.813756   24.844622 C.3        1 MOL1        -0.2382
     134    H5      20.978445   17.668353   25.885772 H          1 MOL1         0.1009
     135    H6      22.220289   18.395588   24.849525 H          1 MOL1         0.1009
     136    H7      21.511292   16.825595   24.426712 H          1 MOL1         0.1009
     137    C3      20.583423   18.645084   22.556093 C.3        1 MOL1        -0.1392
     138    H8      21.425724   19.337519   22.454841 H          1 MOL1         0.0998
     139    H9      20.939296   17.670247   22.198244 H          1 MOL1         0.0998
     140    C4      19.418951   19.111850   21.650677 C.3        1 MOL1        -0.1302
     141    H10     19.031079   20.084396   21.981193 H          1 MOL1         0.0998
     142    H11     18.586393   18.402624   21.731740 H          1 MOL1         0.0998
     143    C5      19.864681   19.217281   20.176905 C.3        1 MOL1        -0.2317
     144    H12     19.026568   19.510902   19.534234 H          1 MOL1         0.1009
     145    H13     20.241660   18.255002   19.809486 H          1 MOL1         0.1009
     146    H14     20.657781   19.967711   20.060565 H          1 MOL1         0.1009
@<TRIPOS>BOND
    1     1     2    1
    2     1     3    1
    3     1     4    1
    4     4     5    1
    5     4     6    1
    6     6     7    1
    7     4     8    1
    8     8     9    1
    9     8    10    1
   10    10    11    1
   11     8    12    1
   12    12    13    1
   13    12    14    1
   14    14    15    1
   15     1    16    1
   16    14    16    1
   17    14    17    1
   18    17    18    1
   19    17    19    1
   20    17    20    1
   21    20    21    1
   22    22    23    1
   23    22    24    1
   24    22    25    1
   25    25    26    1
   26    25    27    1
   27    27    28    1
   28    25    29    1
   29    29    30    1
   30    29    31    1
   31    31    32    1
   32     3    33    1
   33    29    33    1
   34    33    34    1
   35    33    35    1
   36    35    36    1
   37    22    37    1
   38    35    37    1
   39    35    38    1
   40    38    39    1
   41    38    40    1
   42    38    41    1
   43    41    42    1
   44    43    44    1
   45    43    45    1
   46    43    46    1
   47    46    47    1
   48    46    48    1
   49    48    49    1
   50    46    50    1
   51    50    51    1
   52    50    52    1
   53    52    53    1
   54    24    54    1
   55    50    54    1
   56    54    55    1
   57    54    56    1
   58    56    57    1
   59    43    58    1
   60    56    58    1
   61    56    59    1
   62    59    60    1
   63    59    61    1
   64    59    62    1
   65    62    63    1
   66    64    65    1
   67    64    66    1
   68    64    67    1
   69    67    68    1
   70    67    69    1
   71    69    70    1
   72    67    71    1
   73    71    72    1
   74    71    73    1
   75    73    74    1
   76    45    75    1
   77    71    75    1
   78    75    76    1
   79    75    77    1
   80    77    78    1
   81    64    79    1
   82    77    79    1
   83    77    80    1
   84    80    81    1
   85    80    82    1
   86    80    83    1
   87    83    84    1
   88    85    86    1
   89    85    87    1
   90    85    88    1
   91    88    89    1
   92    88    90    1
   93    90    91    1
   94    88    92    1
   95    92    93    1
   96    92    94    1
   97    94    95    1
   98    66    96    1
   99    92    96    1
  100    96    97    1
  101    96    98    1
  102    98    99    1
  103    85   100    1
  104    98   100    1
  105    98   101    1
  106   101   102    1
  107   101   103    1
  108   101   104    1
  109   104   105    1
  110   106   107    1
  111    12   108    1
  112   106   108    1
  113   106   109    1
  114   109   110    1
  115   109   111    1
  116   111   112    1
  117   109   113    1
  118   113   114    1
  119   113   115    1
  120   115   116    1
  121    87   117    1
  122   113   117    1
  123   117   118    1
  124   117   119    1
  125   119   120    1
  126   106   121    1
  127   119   121    1
  128   119   122    1
  129   122   123    1
  130   122   124    1
  131   122   125    1
  132   125   126    1
  133   127   128    1
  134   127   129    1
  135   127   130    1
  136   127   131    1
  137   131   132    1
  138   131   133    1
  139   133   134    1
  140   133   135    1
  141   133   136    1
  142   131   137    1
  143   137   138    1
  144   137   139    1
  145   137   140    1
  146   140   141    1
  147   140   142    1
  148   140   143    1
  149   143   144    1
  150   143   145    1
  151   143   146    1
@<TRIPOS>SUBSTRUCTURE
       1 MOL1            1 RESIDUE      1      MOL     
       2 MOL1          146 RESIDUE      1      MOL     
@<SCITEGIC>MOL_PROPERTY
feprocess Rank
SciTegic.value.IntegerValue
8

@<SCITEGIC>MOL_PROPERTY
Conf_Id
SciTegic.value.IntegerValue
711

@<SCITEGIC>MOL_PROPERTY
Probability
SciTegic.value.DoubleValue
0.51

@<SCITEGIC>MOL_PROPERTY
G
SciTegic.value.DoubleValue
537.340

@<SCITEGIC>MOL_PROPERTY
E
SciTegic.value.DoubleValue
345.366

@<SCITEGIC>MOL_PROPERTY
-TS
SciTegic.value.DoubleValue
191.974

@<SCITEGIC>MOL_PROPERTY
U+W
SciTegic.value.DoubleValue
216.595

@<SCITEGIC>MOL_PROPERTY
U
SciTegic.value.DoubleValue
305.297

@<SCITEGIC>MOL_PROPERTY
W
SciTegic.value.DoubleValue
-88.703

@<SCITEGIC>MOL_PROPERTY
W(PB)
SciTegic.value.DoubleValue
-94.714

@<SCITEGIC>MOL_PROPERTY
W(SA)
SciTegic.value.DoubleValue
6.011

@<SCITEGIC>MOL_PROPERTY
Valence
SciTegic.value.DoubleValue
148.267

@<SCITEGIC>MOL_PROPERTY
Coulomb
SciTegic.value.DoubleValue
181.392

@<SCITEGIC>MOL_PROPERTY
VdW
SciTegic.value.DoubleValue
-24.362

@<SCITEGIC>MOL_PROPERTY
VdW6
SciTegic.value.DoubleValue
-178.411

@<SCITEGIC>MOL_PROPERTY
VdW12
SciTegic.value.DoubleValue
154.049

@<SCITEGIC>MOL_PROPERTY
Bond
SciTegic.value.DoubleValue
4.579

@<SCITEGIC>MOL_PROPERTY
Angle
SciTegic.value.DoubleValue
12.780

@<SCITEGIC>MOL_PROPERTY
Pdih
SciTegic.value.DoubleValue
130.908

@<SCITEGIC>MOL_PROPERTY
Idih
SciTegic.value.DoubleValue
0.000

@<SCITEGIC>MOL_PROPERTY
Tether
SciTegic.value.DoubleValue
0.000

