@<TRIPOS>MOLECULE
CD_guest-4_fast_vm2_rndm.mol2 : feprocess host+ligand conformer 1
         142         148           2
SMALL
USER_CHARGES
 
@<TRIPOS>ATOM
       1    C1      16.116129   15.158944   20.949186 C.3        1 MOL1         0.2972
       2    H1      15.033365   15.046639   20.807966 H          1 MOL1         0.0751
       3    O1      16.472541   16.515185   21.285200 O.3        1 MOL1        -0.3740
       4    C2      16.639776   14.211919   22.060330 C.3        1 MOL1         0.1003
       5    H2      16.462939   13.182928   21.721034 H          1 MOL1         0.0783
       6    O2      15.949872   14.415237   23.302492 O.3        1 MOL1        -0.5519
       7    H3      16.035361   15.374477   23.535596 H          1 MOL1         0.3769
       8    C3      18.165660   14.396656   22.242252 C.3        1 MOL1         0.1053
       9    H4      18.345280   15.413311   22.613913 H          1 MOL1         0.0783
      10    O3      18.659590   13.442697   23.188449 O.3        1 MOL1        -0.5519
      11    H5      18.013191   13.458781   23.928996 H          1 MOL1         0.3769
      12    C4      18.911083   14.231643   20.894763 C.3        1 MOL1         0.1018
      13    H6      18.937299   13.161760   20.649928 H          1 MOL1         0.0783
      14    C5      18.244253   15.021988   19.732572 C.3        1 MOL1         0.1043
      15    H7      18.447707   16.090312   19.882629 H          1 MOL1         0.0783
      16    O4      16.809831   14.807917   19.733666 O.3        1 MOL1        -0.3740
      17    C6      18.788618   14.639299   18.335248 C.3        1 MOL1         0.0138
      18    H8      19.812325   15.024429   18.241303 H          1 MOL1         0.0794
      19    H9      18.180725   15.143894   17.572473 H          1 MOL1         0.0794
      20    O5      18.780679   13.221942   18.120598 O.3        1 MOL1        -0.5486
      21    H10     19.105061   13.057744   17.208399 H          1 MOL1         0.3769
      22    C7      15.024390   20.263216   22.182630 C.3        1 MOL1         0.2972
      23    H11     14.445419   21.153812   22.458741 H          1 MOL1         0.0751
      24    O6      16.339520   20.615976   21.715078 O.3        1 MOL1        -0.3740
      25    C8      15.165004   19.324813   23.405668 C.3        1 MOL1         0.1003
      26    H12     14.154322   19.002406   23.687631 H          1 MOL1         0.0783
      27    O7      15.767659   20.003217   24.517052 O.3        1 MOL1        -0.5519
      28    H13     16.665383   20.299948   24.221288 H          1 MOL1         0.3769
      29    C9      15.984981   18.068969   23.040886 C.3        1 MOL1         0.1053
      30    H14     17.011557   18.387324   22.819902 H          1 MOL1         0.0783
      31    O8      15.983154   17.173415   24.156591 O.3        1 MOL1        -0.5519
      32    H15     16.181807   17.741726   24.934201 H          1 MOL1         0.3769
      33    C10     15.418014   17.361657   21.785794 C.3        1 MOL1         0.1018
      34    H16     14.527470   16.788805   22.076874 H          1 MOL1         0.0783
      35    C11     15.070953   18.352777   20.638581 C.3        1 MOL1         0.1043
      36    H17     16.020455   18.674820   20.199058 H          1 MOL1         0.0783
      37    O9      14.363825   19.521819   21.132891 O.3        1 MOL1        -0.3740
      38    C12     14.235845   17.713062   19.503758 C.3        1 MOL1         0.0138
      39    H18     14.872450   17.000417   18.961884 H          1 MOL1         0.0794
      40    H19     13.947577   18.498365   18.792115 H          1 MOL1         0.0794
      41    O10     13.072854   17.042168   20.004243 O.3        1 MOL1        -0.5486
      42    H20     12.555553   16.725869   19.231559 H          1 MOL1         0.3769
      43    C13     18.539115   23.862582   20.381386 C.3        1 MOL1         0.2972
      44    H21     18.917581   24.770348   19.893910 H          1 MOL1         0.0751
      45    O11     19.594588   23.110271   21.010585 O.3        1 MOL1        -0.3740
      46    C14     17.498907   24.212708   21.473214 C.3        1 MOL1         0.1003
      47    H22     16.671725   24.738662   20.979099 H          1 MOL1         0.0783
      48    O12     18.073397   25.070851   22.472715 O.3        1 MOL1        -0.5519
      49    H23     18.928384   24.659183   22.758430 H          1 MOL1         0.3769
      50    C15     16.925702   22.929318   22.126515 C.3        1 MOL1         0.1053
      51    H24     17.722208   22.465735   22.724038 H          1 MOL1         0.0783
      52    O13     15.830981   23.298071   22.971382 O.3        1 MOL1        -0.5519
      53    H25     16.179161   24.013204   23.547377 H          1 MOL1         0.3769
      54    C16     16.457631   21.896012   21.064641 C.3        1 MOL1         0.1018
      55    H26     15.498038   22.231320   20.650517 H          1 MOL1         0.0783
      56    C17     17.480516   21.715024   19.906788 C.3        1 MOL1         0.1043
      57    H27     18.359568   21.190074   20.300846 H          1 MOL1         0.0783
      58    O14     17.886998   23.012725   19.414404 O.3        1 MOL1        -0.3740
      59    C18     16.962372   20.875912   18.709470 C.3        1 MOL1         0.0138
      60    H28     17.221415   19.824877   18.885925 H          1 MOL1         0.0794
      61    H29     17.505973   21.182337   17.805784 H          1 MOL1         0.0794
      62    O15     15.549664   20.999671   18.496675 O.3        1 MOL1        -0.5486
      63    H30     15.097920   20.642981   19.295110 H          1 MOL1         0.3769
      64    C19     23.681467   22.861663   21.408698 C.3        1 MOL1         0.2972
      65    H31     24.769738   23.002892   21.434572 H          1 MOL1         0.0751
      66    O16     23.318817   21.472837   21.553856 O.3        1 MOL1        -0.3740
      67    C20     22.982682   23.679341   22.525252 C.3        1 MOL1         0.1003
      68    H32     23.176639   24.740604   22.321964 H          1 MOL1         0.0783
      69    O17     23.498465   23.353105   23.824749 O.3        1 MOL1        -0.5519
      70    H33     23.410684   22.373197   23.941877 H          1 MOL1         0.3769
      71    C21     21.452149   23.456663   22.471351 C.3        1 MOL1         0.1053
      72    H34     21.249949   22.407443   22.720827 H          1 MOL1         0.0783
      73    O18     20.808002   24.312577   23.421068 O.3        1 MOL1        -0.5519
      74    H35     21.335758   24.223393   24.245587 H          1 MOL1         0.3769
      75    C22     20.891137   23.731289   21.053980 C.3        1 MOL1         0.1018
      76    H36     20.832456   24.818684   20.912868 H          1 MOL1         0.0783
      77    C23     21.744179   23.087779   19.922936 C.3        1 MOL1         0.1043
      78    H37     21.562223   22.004846   19.933178 H          1 MOL1         0.0783
      79    O19     23.154846   23.330862   20.150260 O.3        1 MOL1        -0.3740
      80    C24     21.383078   23.599336   18.507397 C.3        1 MOL1         0.0138
      81    H38     20.402649   23.190717   18.228083 H          1 MOL1         0.0794
      82    H39     22.116485   23.200682   17.793769 H          1 MOL1         0.0794
      83    O20     21.349959   25.030784   18.440412 O.3        1 MOL1        -0.5486
      84    H40     21.185023   25.281107   17.505108 H          1 MOL1         0.3769
      85    C25     24.794550   17.690913   22.255961 C.3        1 MOL1         0.2972
      86    H41     25.376999   16.794530   22.504157 H          1 MOL1         0.0751
      87    O21     23.572490   17.361842   21.566405 O.3        1 MOL1        -0.3740
      88    C26     24.440271   18.480344   23.540762 C.3        1 MOL1         0.1003
      89    H42     25.386302   18.800915   23.996270 H          1 MOL1         0.0783
      90    O22     23.717576   17.667610   24.479356 O.3        1 MOL1        -0.5519
      91    H43     23.765441   16.736310   24.154209 H          1 MOL1         0.3769
      92    C27     23.620693   19.742922   23.189976 C.3        1 MOL1         0.1053
      93    H44     22.650979   19.417343   22.794628 H          1 MOL1         0.0783
      94    O23     23.421479   20.511894   24.379194 O.3        1 MOL1        -0.5519
      95    H45     23.199961   19.843086   25.065535 H          1 MOL1         0.3769
      96    C28     24.322602   20.597563   22.104649 C.3        1 MOL1         0.1018
      97    H46     25.141851   21.154663   22.578364 H          1 MOL1         0.0783
      98    C29     24.868197   19.746240   20.921286 C.3        1 MOL1         0.1043
      99    H47     24.011818   19.427311   20.313169 H          1 MOL1         0.0783
     100    O24     25.562888   18.569217   21.407527 O.3        1 MOL1        -0.3740
     101    C30     25.822734   20.529773   19.988588 C.3        1 MOL1         0.0138
     102    H48     25.232975   21.266446   19.426254 H          1 MOL1         0.0794
     103    H49     26.252073   19.830312   19.258820 H          1 MOL1         0.0794
     104    O25     26.864260   21.194452   20.715025 O.3        1 MOL1        -0.5486
     105    H50     27.469034   21.605468   20.059224 H          1 MOL1         0.3769
     106    C31     21.332845   13.967846   20.634053 C.3        1 MOL1         0.2972
     107    H51     20.999042   12.990687   20.262327 H          1 MOL1         0.0751
     108    O26     20.230198   14.774513   21.093639 O.3        1 MOL1        -0.3740
     109    C32     22.299520   13.791318   21.831779 C.3        1 MOL1         0.1003
     110    H52     23.158850   13.207176   21.477564 H          1 MOL1         0.0783
     111    O27     21.658256   13.084084   22.905894 O.3        1 MOL1        -0.5519
     112    H53     20.723176   13.407673   22.955271 H          1 MOL1         0.3769
     113    C33     22.825264   15.162309   22.326779 C.3        1 MOL1         0.1053
     114    H54     21.980143   15.717582   22.752861 H          1 MOL1         0.0783
     115    O28     23.814606   14.938673   23.336850 O.3        1 MOL1        -0.5519
     116    H55     23.452058   14.205498   23.884831 H          1 MOL1         0.3769
     117    C34     23.408457   15.993387   21.150531 C.3        1 MOL1         0.1018
     118    H56     24.363791   15.553409   20.836871 H          1 MOL1         0.0783
     119    C35     22.440823   16.032385   19.936906 C.3        1 MOL1         0.1043
     120    H57     21.554264   16.614623   20.218798 H          1 MOL1         0.0783
     121    O29     22.034657   14.686502   19.596569 O.3        1 MOL1        -0.3740
     122    C36     23.040760   16.709454   18.679076 C.3        1 MOL1         0.0138
     123    H58     23.020950   17.797228   18.827566 H          1 MOL1         0.0794
     124    H59     22.392030   16.489451   17.820911 H          1 MOL1         0.0794
     125    O30     24.381995   16.286861   18.404534 O.3        1 MOL1        -0.5486
     126    H60     24.959995   16.684771   19.091165 H          1 MOL1         0.3769
     127    C1      20.011108   18.032549   22.444790 C.3        1 MOL1        -0.1689
     128    H1      19.381537   17.507342   21.714914 H          1 MOL1         0.0830
     129    H2      21.059223   17.852607   22.182844 H          1 MOL1         0.0830
     130    C2      19.756799   17.551947   23.880762 C.3        1 MOL1        -0.1689
     131    H3      18.694101   17.319291   24.014170 H          1 MOL1         0.0830
     132    H4      20.334320   16.652787   24.131890 H          1 MOL1         0.0830
     133    C3      20.131041   18.750880   24.765885 C.3        1 MOL1        -0.1765
     134    H5      21.202228   18.710320   24.996703 H          1 MOL1         0.0830
     135    H6      19.583964   18.739378   25.717353 H          1 MOL1         0.0830
     136    C4      19.841217   20.012078   23.931160 C.3        1 MOL1         0.1214
     137    H7      20.663966   20.730167   24.049813 H          1 MOL1         0.0787
     138    C5      19.740814   19.549719   22.462785 C.3        1 MOL1        -0.1765
     139    H8      18.738808   19.750700   22.071269 H          1 MOL1         0.0830
     140    H9      20.457221   20.088122   21.829437 H          1 MOL1         0.0830
     141    O1      18.610805   20.593358   24.346891 O.3        1 MOL1        -0.5512
     142    H10     18.748765   20.896352   25.266670 H          1 MOL1         0.3776
@<TRIPOS>BOND
    1     1     2    1
    2     1     3    1
    3     1     4    1
    4     4     5    1
    5     4     6    1
    6     6     7    1
    7     4     8    1
    8     8     9    1
    9     8    10    1
   10    10    11    1
   11     8    12    1
   12    12    13    1
   13    12    14    1
   14    14    15    1
   15     1    16    1
   16    14    16    1
   17    14    17    1
   18    17    18    1
   19    17    19    1
   20    17    20    1
   21    20    21    1
   22    22    23    1
   23    22    24    1
   24    22    25    1
   25    25    26    1
   26    25    27    1
   27    27    28    1
   28    25    29    1
   29    29    30    1
   30    29    31    1
   31    31    32    1
   32     3    33    1
   33    29    33    1
   34    33    34    1
   35    33    35    1
   36    35    36    1
   37    22    37    1
   38    35    37    1
   39    35    38    1
   40    38    39    1
   41    38    40    1
   42    38    41    1
   43    41    42    1
   44    43    44    1
   45    43    45    1
   46    43    46    1
   47    46    47    1
   48    46    48    1
   49    48    49    1
   50    46    50    1
   51    50    51    1
   52    50    52    1
   53    52    53    1
   54    24    54    1
   55    50    54    1
   56    54    55    1
   57    54    56    1
   58    56    57    1
   59    43    58    1
   60    56    58    1
   61    56    59    1
   62    59    60    1
   63    59    61    1
   64    59    62    1
   65    62    63    1
   66    64    65    1
   67    64    66    1
   68    64    67    1
   69    67    68    1
   70    67    69    1
   71    69    70    1
   72    67    71    1
   73    71    72    1
   74    71    73    1
   75    73    74    1
   76    45    75    1
   77    71    75    1
   78    75    76    1
   79    75    77    1
   80    77    78    1
   81    64    79    1
   82    77    79    1
   83    77    80    1
   84    80    81    1
   85    80    82    1
   86    80    83    1
   87    83    84    1
   88    85    86    1
   89    85    87    1
   90    85    88    1
   91    88    89    1
   92    88    90    1
   93    90    91    1
   94    88    92    1
   95    92    93    1
   96    92    94    1
   97    94    95    1
   98    66    96    1
   99    92    96    1
  100    96    97    1
  101    96    98    1
  102    98    99    1
  103    85   100    1
  104    98   100    1
  105    98   101    1
  106   101   102    1
  107   101   103    1
  108   101   104    1
  109   104   105    1
  110   106   107    1
  111    12   108    1
  112   106   108    1
  113   106   109    1
  114   109   110    1
  115   109   111    1
  116   111   112    1
  117   109   113    1
  118   113   114    1
  119   113   115    1
  120   115   116    1
  121    87   117    1
  122   113   117    1
  123   117   118    1
  124   117   119    1
  125   119   120    1
  126   106   121    1
  127   119   121    1
  128   119   122    1
  129   122   123    1
  130   122   124    1
  131   122   125    1
  132   125   126    1
  133   127   128    1
  134   127   129    1
  135   127   130    1
  136   130   131    1
  137   130   132    1
  138   130   133    1
  139   133   134    1
  140   133   135    1
  141   133   136    1
  142   136   137    1
  143   127   138    1
  144   136   138    1
  145   138   139    1
  146   138   140    1
  147   136   141    1
  148   141   142    1
@<TRIPOS>SUBSTRUCTURE
       1 MOL1            1 RESIDUE      1      MOL     
       2 MOL1          142 RESIDUE      1      MOL     
@<SCITEGIC>MOL_PROPERTY
feprocess Rank
SciTegic.value.IntegerValue
1

@<SCITEGIC>MOL_PROPERTY
Conf_Id
SciTegic.value.IntegerValue
67

@<SCITEGIC>MOL_PROPERTY
Probability
SciTegic.value.DoubleValue
67.73

@<SCITEGIC>MOL_PROPERTY
G
SciTegic.value.DoubleValue
555.109

@<SCITEGIC>MOL_PROPERTY
E
SciTegic.value.DoubleValue
370.695

@<SCITEGIC>MOL_PROPERTY
-TS
SciTegic.value.DoubleValue
184.413

@<SCITEGIC>MOL_PROPERTY
U+W
SciTegic.value.DoubleValue
245.501

@<SCITEGIC>MOL_PROPERTY
U
SciTegic.value.DoubleValue
284.535

@<SCITEGIC>MOL_PROPERTY
W
SciTegic.value.DoubleValue
-39.034

@<SCITEGIC>MOL_PROPERTY
W(PB)
SciTegic.value.DoubleValue
-45.176

@<SCITEGIC>MOL_PROPERTY
W(SA)
SciTegic.value.DoubleValue
6.143

@<SCITEGIC>MOL_PROPERTY
Valence
SciTegic.value.DoubleValue
156.622

@<SCITEGIC>MOL_PROPERTY
Coulomb
SciTegic.value.DoubleValue
151.010

@<SCITEGIC>MOL_PROPERTY
VdW
SciTegic.value.DoubleValue
-23.097

@<SCITEGIC>MOL_PROPERTY
VdW6
SciTegic.value.DoubleValue
-171.076

@<SCITEGIC>MOL_PROPERTY
VdW12
SciTegic.value.DoubleValue
147.979

@<SCITEGIC>MOL_PROPERTY
Bond
SciTegic.value.DoubleValue
4.491

@<SCITEGIC>MOL_PROPERTY
Angle
SciTegic.value.DoubleValue
14.246

@<SCITEGIC>MOL_PROPERTY
Pdih
SciTegic.value.DoubleValue
137.885

@<SCITEGIC>MOL_PROPERTY
Idih
SciTegic.value.DoubleValue
0.000

@<SCITEGIC>MOL_PROPERTY
Tether
SciTegic.value.DoubleValue
0.000

