@<TRIPOS>MOLECULE
CD_guest-1_fast_vm2_rndm.mol2 : feprocess host+ligand conformer 1
         143         148           2
SMALL
USER_CHARGES
 
@<TRIPOS>ATOM
       1    C1      16.418444   15.375025   21.820799 C.3        1 MOL1         0.2972
       2    H1      15.360353   15.306666   22.103467 H          1 MOL1         0.0751
       3    O1      16.732306   16.657759   21.243826 O.3        1 MOL1        -0.3740
       4    C2      17.316249   15.161046   23.063679 C.3        1 MOL1         0.1003
       5    H2      17.072177   14.171852   23.472846 H          1 MOL1         0.0783
       6    O2      17.076901   16.169309   24.061787 O.3        1 MOL1        -0.5519
       7    H3      16.151872   16.491312   23.925058 H          1 MOL1         0.3769
       8    C3      18.811304   15.177952   22.679186 C.3        1 MOL1         0.1053
       9    H4      19.063430   16.205990   22.399203 H          1 MOL1         0.0783
      10    O3      19.579534   14.787986   23.821378 O.3        1 MOL1        -0.5519
      11    H5      19.031438   15.041107   24.595385 H          1 MOL1         0.3769
      12    C4      19.136454   14.270745   21.465403 C.3        1 MOL1         0.1018
      13    H6      19.210946   13.229718   21.806538 H          1 MOL1         0.0783
      14    C5      18.087643   14.388616   20.323126 C.3        1 MOL1         0.1043
      15    H7      18.244355   15.350845   19.818733 H          1 MOL1         0.0783
      16    O4      16.740800   14.352760   20.855958 O.3        1 MOL1        -0.3740
      17    C6      18.222343   13.284319   19.247478 C.3        1 MOL1         0.0138
      18    H8      19.139389   13.469558   18.671921 H          1 MOL1         0.0794
      19    H9      17.377496   13.368772   18.550852 H          1 MOL1         0.0794
      20    O5      18.266445   11.971739   19.821049 O.3        1 MOL1        -0.5486
      21    H10     18.273302   11.323877   19.082771 H          1 MOL1         0.3769
      22    C7      14.841260   20.324200   20.663573 C.3        1 MOL1         0.2972
      23    H11     14.165683   21.138763   20.371790 H          1 MOL1         0.0751
      24    O6      16.113059   20.821351   21.123186 O.3        1 MOL1        -0.3740
      25    C8      14.224612   19.456844   21.792233 C.3        1 MOL1         0.1003
      26    H12     13.304840   19.009930   21.392793 H          1 MOL1         0.0783
      27    O7      13.894844   20.246337   22.945482 O.3        1 MOL1        -0.5519
      28    H13     14.706133   20.753673   23.202660 H          1 MOL1         0.3769
      29    C9      15.185254   18.303793   22.178516 C.3        1 MOL1         0.1053
      30    H14     16.087499   18.745540   22.621474 H          1 MOL1         0.0783
      31    O8      14.540761   17.462763   23.142094 O.3        1 MOL1        -0.5519
      32    H15     14.070025   18.083637   23.743653 H          1 MOL1         0.3769
      33    C10     15.603657   17.491845   20.919849 C.3        1 MOL1         0.1018
      34    H16     14.748288   16.892407   20.582555 H          1 MOL1         0.0783
      35    C11     16.067426   18.410243   19.756756 C.3        1 MOL1         0.1043
      36    H17     17.024297   18.866826   20.039230 H          1 MOL1         0.0783
      37    O9      15.088517   19.455016   19.536747 O.3        1 MOL1        -0.3740
      38    C12     16.309206   17.657253   18.424380 C.3        1 MOL1         0.0138
      39    H18     17.266667   17.124440   18.495073 H          1 MOL1         0.0794
      40    H19     16.410629   18.396675   17.618929 H          1 MOL1         0.0794
      41    O10     15.264915   16.727549   18.111413 O.3        1 MOL1        -0.5486
      42    H20     15.350987   15.970600   18.730743 H          1 MOL1         0.3769
      43    C13     18.413991   24.108910   21.839743 C.3        1 MOL1         0.2972
      44    H21     18.874035   25.087007   22.031894 H          1 MOL1         0.0751
      45    O11     19.402797   23.091661   21.585664 O.3        1 MOL1        -0.3740
      46    C14     17.576570   23.670677   23.062649 C.3        1 MOL1         0.1003
      47    H22     16.766477   24.400048   23.193091 H          1 MOL1         0.0783
      48    O12     18.388832   23.637429   24.247924 O.3        1 MOL1        -0.5519
      49    H23     19.331575   23.703058   23.955907 H          1 MOL1         0.3769
      50    C15     16.946342   22.284538   22.808178 C.3        1 MOL1         0.1053
      51    H24     17.762975   21.557581   22.768850 H          1 MOL1         0.0783
      52    O13     16.069476   21.952287   23.887785 O.3        1 MOL1        -0.5519
      53    H25     16.564270   22.204965   24.699574 H          1 MOL1         0.3769
      54    C16     16.189290   22.220067   21.457517 C.3        1 MOL1         0.1018
      55    H26     15.197366   22.672579   21.588708 H          1 MOL1         0.0783
      56    C17     16.951134   22.906743   20.285317 C.3        1 MOL1         0.1043
      57    H27     17.757914   22.230208   19.977483 H          1 MOL1         0.0783
      58    O14     17.535130   24.169854   20.698048 O.3        1 MOL1        -0.3740
      59    C18     16.069893   23.155266   19.038211 C.3        1 MOL1         0.0138
      60    H28     15.840174   22.186271   18.574581 H          1 MOL1         0.0794
      61    H29     16.649739   23.736472   18.308564 H          1 MOL1         0.0794
      62    O15     14.853312   23.837615   19.365726 O.3        1 MOL1        -0.5486
      63    H30     14.382608   24.028103   18.524927 H          1 MOL1         0.3769
      64    C19     23.474206   22.650715   20.845342 C.3        1 MOL1         0.2972
      65    H31     24.519122   22.795935   20.542752 H          1 MOL1         0.0751
      66    O16     23.202310   21.264831   21.143181 O.3        1 MOL1        -0.3740
      67    C20     23.115572   23.540558   22.071303 C.3        1 MOL1         0.1003
      68    H32     23.266278   24.583704   21.764236 H          1 MOL1         0.0783
      69    O17     23.952163   23.267540   23.205390 O.3        1 MOL1        -0.5519
      70    H33     23.766872   22.334869   23.482477 H          1 MOL1         0.3769
      71    C21     21.626317   23.370182   22.455833 C.3        1 MOL1         0.1053
      72    H34     21.489437   22.346724   22.823158 H          1 MOL1         0.0783
      73    O18     21.278024   24.301078   23.485928 O.3        1 MOL1        -0.5519
      74    H35     22.030882   24.279189   24.118422 H          1 MOL1         0.3769
      75    C22     20.708102   23.572965   21.226472 C.3        1 MOL1         0.1018
      76    H36     20.698841   24.639854   20.966820 H          1 MOL1         0.0783
      77    C23     21.181776   22.757276   19.994370 C.3        1 MOL1         0.1043
      78    H37     21.046554   21.690403   20.214570 H          1 MOL1         0.0783
      79    O19     22.587855   23.029881   19.766737 O.3        1 MOL1        -0.3740
      80    C24     20.390634   23.044739   18.690613 C.3        1 MOL1         0.0138
      81    H38     19.551773   22.339773   18.632697 H          1 MOL1         0.0794
      82    H39     21.041507   22.832060   17.832038 H          1 MOL1         0.0794
      83    O20     19.891471   24.385978   18.609701 O.3        1 MOL1        -0.5486
      84    H40     19.151611   24.462033   19.255837 H          1 MOL1         0.3769
      85    C25     24.841155   17.612184   22.081864 C.3        1 MOL1         0.2972
      86    H41     25.457206   16.758812   22.393271 H          1 MOL1         0.0751
      87    O21     23.645562   17.185669   21.397421 O.3        1 MOL1        -0.3740
      88    C26     24.442331   18.464607   23.313047 C.3        1 MOL1         0.1003
      89    H42     25.370516   18.829697   23.771792 H          1 MOL1         0.0783
      90    O22     23.702835   17.696866   24.277704 O.3        1 MOL1        -0.5519
      91    H43     23.833969   16.743060   24.055659 H          1 MOL1         0.3769
      92    C27     23.601868   19.682927   22.878044 C.3        1 MOL1         0.1053
      93    H44     22.646413   19.296830   22.505377 H          1 MOL1         0.0783
      94    O23     23.376568   20.525436   24.012861 O.3        1 MOL1        -0.5519
      95    H45     23.208534   19.899332   24.752435 H          1 MOL1         0.3769
      96    C28     24.263607   20.485669   21.731249 C.3        1 MOL1         0.1018
      97    H46     25.059747   21.114081   22.151166 H          1 MOL1         0.0783
      98    C29     24.840454   19.573180   20.610388 C.3        1 MOL1         0.1043
      99    H47     23.997393   19.176000   20.030232 H          1 MOL1         0.0783
     100    O24     25.581490   18.465712   21.184349 O.3        1 MOL1        -0.3740
     101    C30     25.763228   20.318607   19.616615 C.3        1 MOL1         0.0138
     102    H48     25.143670   20.976145   18.992019 H          1 MOL1         0.0794
     103    H49     26.228363   19.580110   18.949893 H          1 MOL1         0.0794
     104    O25     26.769250   21.089895   20.284799 O.3        1 MOL1        -0.5486
     105    H50     27.364959   21.462087   19.598172 H          1 MOL1         0.3769
     106    C31     21.420969   13.796329   20.659023 C.3        1 MOL1         0.2972
     107    H51     21.005584   12.822654   20.368813 H          1 MOL1         0.0751
     108    O26     20.379439   14.760112   20.924226 O.3        1 MOL1        -0.3740
     109    C32     22.352070   13.670676   21.894279 C.3        1 MOL1         0.1003
     110    H52     23.205582   13.050956   21.589520 H          1 MOL1         0.0783
     111    O27     21.700350   13.037599   23.004510 O.3        1 MOL1        -0.5519
     112    H53     20.962614   13.635675   23.284473 H          1 MOL1         0.3769
     113    C33     22.897716   15.061400   22.300163 C.3        1 MOL1         0.1053
     114    H54     22.052954   15.672393   22.646688 H          1 MOL1         0.0783
     115    O28     23.844509   14.900257   23.362268 O.3        1 MOL1        -0.5519
     116    H55     23.454354   14.212377   23.948314 H          1 MOL1         0.3769
     117    C34     23.555786   15.781484   21.090355 C.3        1 MOL1         0.1018
     118    H56     24.546211   15.344184   20.911481 H          1 MOL1         0.0783
     119    C35     22.714548   15.680587   19.785921 C.3        1 MOL1         0.1043
     120    H57     21.852576   16.351870   19.882406 H          1 MOL1         0.0783
     121    O29     22.235654   14.326030   19.591744 O.3        1 MOL1        -0.3740
     122    C36     23.481089   16.127581   18.516423 C.3        1 MOL1         0.0138
     123    H58     23.598994   17.219030   18.545241 H          1 MOL1         0.0794
     124    H59     22.864917   15.892239   17.638516 H          1 MOL1         0.0794
     125    O30     24.766391   15.505952   18.394217 O.3        1 MOL1        -0.5486
     126    H60     25.369541   15.944918   19.031815 H          1 MOL1         0.3769
     127    N1      19.349475   17.774170   25.016847 N.4        1 MOL1        -0.5891
     128    H1      18.681186   17.301307   24.387640 H          1 MOL1         0.3726
     129    H2      18.797083   18.385643   25.624515 H          1 MOL1         0.3726
     130    H3      19.756924   17.049144   25.614808 H          1 MOL1         0.3726
     131    C1      20.426565   18.540267   24.272769 C.3        1 MOL1         0.0314
     132    H4      21.022930   17.829849   23.693888 H          1 MOL1         0.0999
     133    H5      21.081880   18.989134   25.024005 H          1 MOL1         0.0999
     134    C2      19.877252   19.650683   23.355274 C.3        1 MOL1        -0.1308
     135    H6      19.161663   20.258617   23.922963 H          1 MOL1         0.1025
     136    H7      20.695351   20.325601   23.083420 H          1 MOL1         0.1025
     137    C3      19.217145   19.121065   22.060626 C.3        1 MOL1        -0.1243
     138    H8      18.755269   19.959426   21.522467 H          1 MOL1         0.1025
     139    H9      18.402042   18.432970   22.315237 H          1 MOL1         0.1025
     140    C4      20.221543   18.426125   21.113276 C.3        1 MOL1        -0.2258
     141    H10     20.992207   19.129122   20.771272 H          1 MOL1         0.1036
     142    H11     19.706795   18.033206   20.227211 H          1 MOL1         0.1036
     143    H12     20.726625   17.585060   21.603017 H          1 MOL1         0.1036
@<TRIPOS>BOND
    1     1     2    1
    2     1     3    1
    3     1     4    1
    4     4     5    1
    5     4     6    1
    6     6     7    1
    7     4     8    1
    8     8     9    1
    9     8    10    1
   10    10    11    1
   11     8    12    1
   12    12    13    1
   13    12    14    1
   14    14    15    1
   15     1    16    1
   16    14    16    1
   17    14    17    1
   18    17    18    1
   19    17    19    1
   20    17    20    1
   21    20    21    1
   22    22    23    1
   23    22    24    1
   24    22    25    1
   25    25    26    1
   26    25    27    1
   27    27    28    1
   28    25    29    1
   29    29    30    1
   30    29    31    1
   31    31    32    1
   32     3    33    1
   33    29    33    1
   34    33    34    1
   35    33    35    1
   36    35    36    1
   37    22    37    1
   38    35    37    1
   39    35    38    1
   40    38    39    1
   41    38    40    1
   42    38    41    1
   43    41    42    1
   44    43    44    1
   45    43    45    1
   46    43    46    1
   47    46    47    1
   48    46    48    1
   49    48    49    1
   50    46    50    1
   51    50    51    1
   52    50    52    1
   53    52    53    1
   54    24    54    1
   55    50    54    1
   56    54    55    1
   57    54    56    1
   58    56    57    1
   59    43    58    1
   60    56    58    1
   61    56    59    1
   62    59    60    1
   63    59    61    1
   64    59    62    1
   65    62    63    1
   66    64    65    1
   67    64    66    1
   68    64    67    1
   69    67    68    1
   70    67    69    1
   71    69    70    1
   72    67    71    1
   73    71    72    1
   74    71    73    1
   75    73    74    1
   76    45    75    1
   77    71    75    1
   78    75    76    1
   79    75    77    1
   80    77    78    1
   81    64    79    1
   82    77    79    1
   83    77    80    1
   84    80    81    1
   85    80    82    1
   86    80    83    1
   87    83    84    1
   88    85    86    1
   89    85    87    1
   90    85    88    1
   91    88    89    1
   92    88    90    1
   93    90    91    1
   94    88    92    1
   95    92    93    1
   96    92    94    1
   97    94    95    1
   98    66    96    1
   99    92    96    1
  100    96    97    1
  101    96    98    1
  102    98    99    1
  103    85   100    1
  104    98   100    1
  105    98   101    1
  106   101   102    1
  107   101   103    1
  108   101   104    1
  109   104   105    1
  110   106   107    1
  111    12   108    1
  112   106   108    1
  113   106   109    1
  114   109   110    1
  115   109   111    1
  116   111   112    1
  117   109   113    1
  118   113   114    1
  119   113   115    1
  120   115   116    1
  121    87   117    1
  122   113   117    1
  123   117   118    1
  124   117   119    1
  125   119   120    1
  126   106   121    1
  127   119   121    1
  128   119   122    1
  129   122   123    1
  130   122   124    1
  131   122   125    1
  132   125   126    1
  133   127   128    1
  134   127   129    1
  135   127   130    1
  136   127   131    1
  137   131   132    1
  138   131   133    1
  139   131   134    1
  140   134   135    1
  141   134   136    1
  142   134   137    1
  143   137   138    1
  144   137   139    1
  145   137   140    1
  146   140   141    1
  147   140   142    1
  148   140   143    1
@<TRIPOS>SUBSTRUCTURE
       1 MOL1            1 RESIDUE      1      MOL     
       2 MOL1          143 RESIDUE      1      MOL     
@<SCITEGIC>MOL_PROPERTY
feprocess Rank
SciTegic.value.IntegerValue
1

@<SCITEGIC>MOL_PROPERTY
Conf_Id
SciTegic.value.IntegerValue
857

@<SCITEGIC>MOL_PROPERTY
Probability
SciTegic.value.DoubleValue
25.61

@<SCITEGIC>MOL_PROPERTY
G
SciTegic.value.DoubleValue
549.840

@<SCITEGIC>MOL_PROPERTY
E
SciTegic.value.DoubleValue
362.201

@<SCITEGIC>MOL_PROPERTY
-TS
SciTegic.value.DoubleValue
187.639

@<SCITEGIC>MOL_PROPERTY
U+W
SciTegic.value.DoubleValue
236.113

@<SCITEGIC>MOL_PROPERTY
U
SciTegic.value.DoubleValue
326.577

@<SCITEGIC>MOL_PROPERTY
W
SciTegic.value.DoubleValue
-90.462

@<SCITEGIC>MOL_PROPERTY
W(PB)
SciTegic.value.DoubleValue
-96.512

@<SCITEGIC>MOL_PROPERTY
W(SA)
SciTegic.value.DoubleValue
6.050

@<SCITEGIC>MOL_PROPERTY
Valence
SciTegic.value.DoubleValue
146.526

@<SCITEGIC>MOL_PROPERTY
Coulomb
SciTegic.value.DoubleValue
201.213

@<SCITEGIC>MOL_PROPERTY
VdW
SciTegic.value.DoubleValue
-21.162

@<SCITEGIC>MOL_PROPERTY
VdW6
SciTegic.value.DoubleValue
-172.246

@<SCITEGIC>MOL_PROPERTY
VdW12
SciTegic.value.DoubleValue
151.083

@<SCITEGIC>MOL_PROPERTY
Bond
SciTegic.value.DoubleValue
4.656

@<SCITEGIC>MOL_PROPERTY
Angle
SciTegic.value.DoubleValue
12.409

@<SCITEGIC>MOL_PROPERTY
Pdih
SciTegic.value.DoubleValue
129.462

@<SCITEGIC>MOL_PROPERTY
Idih
SciTegic.value.DoubleValue
0.000

@<SCITEGIC>MOL_PROPERTY
Tether
SciTegic.value.DoubleValue
0.000

@<TRIPOS>MOLECULE
CD_guest-1_fast_vm2_rndm.mol2 : feprocess host+ligand conformer 2
         143         148           2
SMALL
USER_CHARGES
 
@<TRIPOS>ATOM
       1    C1      16.170683   15.057278   20.969224 C.3        1 MOL1         0.2972
       2    H1      15.085107   14.913364   20.894351 H          1 MOL1         0.0751
       3    O1      16.513299   16.460458   21.027735 O.3        1 MOL1        -0.3740
       4    C2      16.754943   14.307779   22.198040 C.3        1 MOL1         0.1003
       5    H2      16.604435   13.234623   22.021607 H          1 MOL1         0.0783
       6    O2      16.098291   14.665218   23.422322 O.3        1 MOL1        -0.5519
       7    H3      16.310842   15.616908   23.591892 H          1 MOL1         0.3769
       8    C3      18.277132   14.564228   22.292468 C.3        1 MOL1         0.1053
       9    H4      18.433066   15.635147   22.465707 H          1 MOL1         0.0783
      10    O3      18.829371   13.819198   23.381983 O.3        1 MOL1        -0.5519
      11    H5      18.172485   13.902559   24.109198 H          1 MOL1         0.3769
      12    C4      18.978915   14.172998   20.968438 C.3        1 MOL1         0.1018
      13    H6      19.022500   13.076825   20.921078 H          1 MOL1         0.0783
      14    C5      18.250960   14.726936   19.709540 C.3        1 MOL1         0.1043
      15    H7      18.438950   15.807244   19.654292 H          1 MOL1         0.0783
      16    O4      16.820990   14.500843   19.806972 O.3        1 MOL1        -0.3740
      17    C6      18.754860   14.104273   18.385212 C.3        1 MOL1         0.0138
      18    H8      19.766935   14.481126   18.185300 H          1 MOL1         0.0794
      19    H9      18.110286   14.451995   17.566870 H          1 MOL1         0.0794
      20    O5      18.771050   12.671723   18.432851 O.3        1 MOL1        -0.5486
      21    H10     19.045278   12.347804   17.547138 H          1 MOL1         0.3769
      22    C7      15.092915   20.225584   22.053876 C.3        1 MOL1         0.2972
      23    H11     14.502691   21.074362   22.420837 H          1 MOL1         0.0751
      24    O6      16.195124   20.660341   21.228092 O.3        1 MOL1        -0.3740
      25    C8      15.644644   19.390549   23.240218 C.3        1 MOL1         0.1003
      26    H12     14.780341   19.029863   23.813188 H          1 MOL1         0.0783
      27    O7      16.495468   20.163700   24.102421 O.3        1 MOL1        -0.5519
      28    H13     16.208833   21.104874   24.021370 H          1 MOL1         0.3769
      29    C9      16.427971   18.167550   22.720794 C.3        1 MOL1         0.1053
      30    H14     17.302643   18.545246   22.182597 H          1 MOL1         0.0783
      31    O8      16.847793   17.383879   23.841881 O.3        1 MOL1        -0.5519
      32    H15     17.082276   18.051343   24.526136 H          1 MOL1         0.3769
      33    C10     15.593366   17.329012   21.722358 C.3        1 MOL1         0.1018
      34    H16     14.831183   16.767467   22.278599 H          1 MOL1         0.0783
      35    C11     14.914252   18.220654   20.644409 C.3        1 MOL1         0.1043
      36    H17     15.694694   18.589566   19.965816 H          1 MOL1         0.0783
      37    O9      14.255228   19.354112   21.264240 O.3        1 MOL1        -0.3740
      38    C12     13.877156   17.460144   19.783563 C.3        1 MOL1         0.0138
      39    H18     14.414864   16.763860   19.125789 H          1 MOL1         0.0794
      40    H19     13.358609   18.183032   19.139584 H          1 MOL1         0.0794
      41    O10     12.932963   16.738720   20.585061 O.3        1 MOL1        -0.5486
      42    H20     12.264250   16.349716   19.979816 H          1 MOL1         0.3769
      43    C13     18.433545   24.122584   20.715607 C.3        1 MOL1         0.2972
      44    H21     18.809046   25.125140   20.476404 H          1 MOL1         0.0751
      45    O11     19.500145   23.208226   21.048933 O.3        1 MOL1        -0.3740
      46    C14     17.452487   24.184959   21.910032 C.3        1 MOL1         0.1003
      47    H22     16.596858   24.797190   21.596007 H          1 MOL1         0.0783
      48    O12     18.059338   24.793553   23.059918 O.3        1 MOL1        -0.5519
      49    H23     18.983006   24.442158   23.133099 H          1 MOL1         0.3769
      50    C15     16.921506   22.773270   22.253670 C.3        1 MOL1         0.1053
      51    H24     17.764630   22.167052   22.612676 H          1 MOL1         0.0783
      52    O13     15.941948   22.909065   23.289524 O.3        1 MOL1        -0.5519
      53    H25     16.301327   23.610339   23.880857 H          1 MOL1         0.3769
      54    C16     16.319933   22.080766   20.995137 C.3        1 MOL1         0.1018
      55    H26     15.343446   22.530379   20.775094 H          1 MOL1         0.0783
      56    C17     17.239095   22.220200   19.746444 C.3        1 MOL1         0.1043
      57    H27     18.109693   21.571447   19.890577 H          1 MOL1         0.0783
      58    O14     17.702351   23.584292   19.595145 O.3        1 MOL1        -0.3740
      59    C18     16.565040   21.773457   18.425895 C.3        1 MOL1         0.0138
      60    H28     16.457802   20.680399   18.439884 H          1 MOL1         0.0794
      61    H29     17.234667   22.022527   17.592060 H          1 MOL1         0.0794
      62    O15     15.284089   22.382973   18.224862 O.3        1 MOL1        -0.5486
      63    H30     14.651968   21.953945   18.840578 H          1 MOL1         0.3769
      64    C19     23.629568   22.818212   21.226365 C.3        1 MOL1         0.2972
      65    H31     24.717447   22.958792   21.187565 H          1 MOL1         0.0751
      66    O16     23.282474   21.424011   21.360072 O.3        1 MOL1        -0.3740
      67    C20     23.000089   23.625218   22.393518 C.3        1 MOL1         0.1003
      68    H32     23.194509   24.686612   22.191087 H          1 MOL1         0.0783
      69    O17     23.579456   23.285959   23.662184 O.3        1 MOL1        -0.5519
      70    H33     23.374721   22.331447   23.829086 H          1 MOL1         0.3769
      71    C21     21.466184   23.421499   22.422956 C.3        1 MOL1         0.1053
      72    H34     21.261149   22.368908   22.660999 H          1 MOL1         0.0783
      73    O18     20.899867   24.264380   23.429849 O.3        1 MOL1        -0.5519
      74    H35     21.495451   24.170987   24.207057 H          1 MOL1         0.3769
      75    C22     20.837266   23.746340   21.043781 C.3        1 MOL1         0.1018
      76    H36     20.845698   24.836073   20.912106 H          1 MOL1         0.0783
      77    C23     21.601878   23.073280   19.869406 C.3        1 MOL1         0.1043
      78    H37     21.409349   21.994179   19.908415 H          1 MOL1         0.0783
      79    O19     23.026889   23.302887   20.006703 O.3        1 MOL1        -0.3740
      80    C24     21.154822   23.559345   18.468877 C.3        1 MOL1         0.0138
      81    H38     20.153541   23.159103   18.259234 H          1 MOL1         0.0794
      82    H39     21.836433   23.131632   17.721721 H          1 MOL1         0.0794
      83    O20     21.141741   24.987909   18.357367 O.3        1 MOL1        -0.5486
      84    H40     20.248690   25.298996   18.615777 H          1 MOL1         0.3769
      85    C25     24.697455   17.680287   22.329179 C.3        1 MOL1         0.2972
      86    H41     25.258494   16.801528   22.670438 H          1 MOL1         0.0751
      87    O21     23.597760   17.313128   21.471140 O.3        1 MOL1        -0.3740
      88    C26     24.134572   18.471841   23.537374 C.3        1 MOL1         0.1003
      89    H42     24.990794   18.789006   24.146975 H          1 MOL1         0.0783
      90    O22     23.254392   17.657513   24.334152 O.3        1 MOL1        -0.5519
      91    H43     23.598518   16.733127   24.269585 H          1 MOL1         0.3769
      92    C27     23.385180   19.734322   23.054068 C.3        1 MOL1         0.1053
      93    H44     22.494164   19.402059   22.516683 H          1 MOL1         0.0783
      94    O23     22.994926   20.510747   24.189872 O.3        1 MOL1        -0.5519
      95    H45     22.698036   19.848560   24.853343 H          1 MOL1         0.3769
      96    C28     24.220799   20.583278   22.063752 C.3        1 MOL1         0.1018
      97    H46     24.958057   21.165678   22.632046 H          1 MOL1         0.0783
      98    C29     24.936035   19.718488   20.986584 C.3        1 MOL1         0.1043
      99    H47     24.178388   19.372522   20.271337 H          1 MOL1         0.0783
     100    O24     25.568453   18.565187   21.594626 O.3        1 MOL1        -0.3740
     101    C30     26.003445   20.495179   20.178802 C.3        1 MOL1         0.0138
     102    H48     25.490188   21.204235   19.515232 H          1 MOL1         0.0794
     103    H49     26.544580   19.784476   19.539840 H          1 MOL1         0.0794
     104    O25     26.918790   21.199665   21.027174 O.3        1 MOL1        -0.5486
     105    H50     27.610670   21.597057   20.454240 H          1 MOL1         0.3769
     106    C31     21.382229   13.899415   20.620915 C.3        1 MOL1         0.2972
     107    H51     21.028880   12.917986   20.279212 H          1 MOL1         0.0751
     108    O26     20.291405   14.765508   20.998993 O.3        1 MOL1        -0.3740
     109    C32     22.312644   13.751933   21.849372 C.3        1 MOL1         0.1003
     110    H52     23.179618   13.156722   21.534099 H          1 MOL1         0.0783
     111    O27     21.648514   13.076519   22.929350 O.3        1 MOL1        -0.5519
     112    H53     20.743727   13.470769   23.018366 H          1 MOL1         0.3769
     113    C33     22.827630   15.137089   22.311435 C.3        1 MOL1         0.1053
     114    H54     21.968366   15.714480   22.676304 H          1 MOL1         0.0783
     115    O28     23.763978   14.938272   23.376720 O.3        1 MOL1        -0.5519
     116    H55     23.383390   14.202500   23.909305 H          1 MOL1         0.3769
     117    C34     23.469939   15.918601   21.128006 C.3        1 MOL1         0.1018
     118    H56     24.446765   15.476733   20.893976 H          1 MOL1         0.0783
     119    C35     22.575423   15.892339   19.857126 C.3        1 MOL1         0.1043
     120    H57     21.691813   16.514176   20.046506 H          1 MOL1         0.0783
     121    O29     22.142313   14.541594   19.576167 O.3        1 MOL1        -0.3740
     122    C36     23.267356   16.466807   18.596026 C.3        1 MOL1         0.0138
     123    H58     23.337222   17.557663   18.701583 H          1 MOL1         0.0794
     124    H59     22.627945   16.266197   17.726166 H          1 MOL1         0.0794
     125    O30     24.573676   15.918726   18.382221 O.3        1 MOL1        -0.5486
     126    H60     25.170025   16.303967   19.059592 H          1 MOL1         0.3769
     127    N1      20.303794   17.599949   24.462297 N.4        1 MOL1        -0.5891
     128    H1      21.316518   17.406501   24.400898 H          1 MOL1         0.3726
     129    H2      19.797141   16.730594   24.265018 H          1 MOL1         0.3726
     130    H3      20.115581   17.846554   25.438548 H          1 MOL1         0.3726
     131    C1      19.909725   18.717116   23.519801 C.3        1 MOL1         0.0314
     132    H4      20.544311   19.578847   23.744887 H          1 MOL1         0.0999
     133    H5      18.872932   18.995716   23.727807 H          1 MOL1         0.0999
     134    C2      20.057600   18.337936   22.035182 C.3        1 MOL1        -0.1308
     135    H6      21.047585   17.903135   21.859885 H          1 MOL1         0.1025
     136    H7      19.328393   17.561943   21.773339 H          1 MOL1         0.1025
     137    C3      19.861624   19.570344   21.128829 C.3        1 MOL1        -0.1243
     138    H8      20.596555   20.343322   21.391224 H          1 MOL1         0.1025
     139    H9      18.872021   20.006758   21.315558 H          1 MOL1         0.1025
     140    C4      20.001704   19.211634   19.634735 C.3        1 MOL1        -0.2258
     141    H10     19.845770   20.096746   19.005275 H          1 MOL1         0.1036
     142    H11     19.263992   18.453352   19.340925 H          1 MOL1         0.1036
     143    H12     21.003645   18.819772   19.418384 H          1 MOL1         0.1036
@<TRIPOS>BOND
    1     1     2    1
    2     1     3    1
    3     1     4    1
    4     4     5    1
    5     4     6    1
    6     6     7    1
    7     4     8    1
    8     8     9    1
    9     8    10    1
   10    10    11    1
   11     8    12    1
   12    12    13    1
   13    12    14    1
   14    14    15    1
   15     1    16    1
   16    14    16    1
   17    14    17    1
   18    17    18    1
   19    17    19    1
   20    17    20    1
   21    20    21    1
   22    22    23    1
   23    22    24    1
   24    22    25    1
   25    25    26    1
   26    25    27    1
   27    27    28    1
   28    25    29    1
   29    29    30    1
   30    29    31    1
   31    31    32    1
   32     3    33    1
   33    29    33    1
   34    33    34    1
   35    33    35    1
   36    35    36    1
   37    22    37    1
   38    35    37    1
   39    35    38    1
   40    38    39    1
   41    38    40    1
   42    38    41    1
   43    41    42    1
   44    43    44    1
   45    43    45    1
   46    43    46    1
   47    46    47    1
   48    46    48    1
   49    48    49    1
   50    46    50    1
   51    50    51    1
   52    50    52    1
   53    52    53    1
   54    24    54    1
   55    50    54    1
   56    54    55    1
   57    54    56    1
   58    56    57    1
   59    43    58    1
   60    56    58    1
   61    56    59    1
   62    59    60    1
   63    59    61    1
   64    59    62    1
   65    62    63    1
   66    64    65    1
   67    64    66    1
   68    64    67    1
   69    67    68    1
   70    67    69    1
   71    69    70    1
   72    67    71    1
   73    71    72    1
   74    71    73    1
   75    73    74    1
   76    45    75    1
   77    71    75    1
   78    75    76    1
   79    75    77    1
   80    77    78    1
   81    64    79    1
   82    77    79    1
   83    77    80    1
   84    80    81    1
   85    80    82    1
   86    80    83    1
   87    83    84    1
   88    85    86    1
   89    85    87    1
   90    85    88    1
   91    88    89    1
   92    88    90    1
   93    90    91    1
   94    88    92    1
   95    92    93    1
   96    92    94    1
   97    94    95    1
   98    66    96    1
   99    92    96    1
  100    96    97    1
  101    96    98    1
  102    98    99    1
  103    85   100    1
  104    98   100    1
  105    98   101    1
  106   101   102    1
  107   101   103    1
  108   101   104    1
  109   104   105    1
  110   106   107    1
  111    12   108    1
  112   106   108    1
  113   106   109    1
  114   109   110    1
  115   109   111    1
  116   111   112    1
  117   109   113    1
  118   113   114    1
  119   113   115    1
  120   115   116    1
  121    87   117    1
  122   113   117    1
  123   117   118    1
  124   117   119    1
  125   119   120    1
  126   106   121    1
  127   119   121    1
  128   119   122    1
  129   122   123    1
  130   122   124    1
  131   122   125    1
  132   125   126    1
  133   127   128    1
  134   127   129    1
  135   127   130    1
  136   127   131    1
  137   131   132    1
  138   131   133    1
  139   131   134    1
  140   134   135    1
  141   134   136    1
  142   134   137    1
  143   137   138    1
  144   137   139    1
  145   137   140    1
  146   140   141    1
  147   140   142    1
  148   140   143    1
@<TRIPOS>SUBSTRUCTURE
       1 MOL1            1 RESIDUE      1      MOL     
       2 MOL1          143 RESIDUE      1      MOL     
@<SCITEGIC>MOL_PROPERTY
feprocess Rank
SciTegic.value.IntegerValue
2

@<SCITEGIC>MOL_PROPERTY
Conf_Id
SciTegic.value.IntegerValue
979

@<SCITEGIC>MOL_PROPERTY
Probability
SciTegic.value.DoubleValue
15.98

@<SCITEGIC>MOL_PROPERTY
G
SciTegic.value.DoubleValue
550.121

@<SCITEGIC>MOL_PROPERTY
E
SciTegic.value.DoubleValue
362.628

@<SCITEGIC>MOL_PROPERTY
-TS
SciTegic.value.DoubleValue
187.493

@<SCITEGIC>MOL_PROPERTY
U+W
SciTegic.value.DoubleValue
236.540

@<SCITEGIC>MOL_PROPERTY
U
SciTegic.value.DoubleValue
327.106

@<SCITEGIC>MOL_PROPERTY
W
SciTegic.value.DoubleValue
-90.566

@<SCITEGIC>MOL_PROPERTY
W(PB)
SciTegic.value.DoubleValue
-96.613

@<SCITEGIC>MOL_PROPERTY
W(SA)
SciTegic.value.DoubleValue
6.047

@<SCITEGIC>MOL_PROPERTY
Valence
SciTegic.value.DoubleValue
144.546

@<SCITEGIC>MOL_PROPERTY
Coulomb
SciTegic.value.DoubleValue
202.901

@<SCITEGIC>MOL_PROPERTY
VdW
SciTegic.value.DoubleValue
-20.341

@<SCITEGIC>MOL_PROPERTY
VdW6
SciTegic.value.DoubleValue
-171.373

@<SCITEGIC>MOL_PROPERTY
VdW12
SciTegic.value.DoubleValue
151.032

@<SCITEGIC>MOL_PROPERTY
Bond
SciTegic.value.DoubleValue
4.725

@<SCITEGIC>MOL_PROPERTY
Angle
SciTegic.value.DoubleValue
11.982

@<SCITEGIC>MOL_PROPERTY
Pdih
SciTegic.value.DoubleValue
127.839

@<SCITEGIC>MOL_PROPERTY
Idih
SciTegic.value.DoubleValue
0.000

@<SCITEGIC>MOL_PROPERTY
Tether
SciTegic.value.DoubleValue
0.000

@<TRIPOS>MOLECULE
CD_guest-1_fast_vm2_rndm.mol2 : feprocess host+ligand conformer 3
         143         148           2
SMALL
USER_CHARGES
 
@<TRIPOS>ATOM
       1    C1      16.386562   15.405912   21.973688 C.3        1 MOL1         0.2972
       2    H1      15.345888   15.304258   22.306260 H          1 MOL1         0.0751
       3    O1      16.604240   16.651716   21.279637 O.3        1 MOL1        -0.3740
       4    C2      17.352602   15.329645   23.184414 C.3        1 MOL1         0.1003
       5    H2      17.199781   14.350843   23.657909 H          1 MOL1         0.0783
       6    O2      17.097071   16.368592   24.146131 O.3        1 MOL1        -0.5519
       7    H3      16.139809   16.602090   24.063096 H          1 MOL1         0.3769
       8    C3      18.819598   15.419413   22.712273 C.3        1 MOL1         0.1053
       9    H4      18.965157   16.415429   22.282137 H          1 MOL1         0.0783
      10    O3      19.676565   15.246526   23.846121 O.3        1 MOL1        -0.5519
      11    H5      19.110082   15.452914   24.623175 H          1 MOL1         0.3769
      12    C4      19.136992   14.384195   21.605056 C.3        1 MOL1         0.1018
      13    H6      19.215404   13.388675   22.061706 H          1 MOL1         0.0783
      14    C5      18.051037   14.372026   20.491991 C.3        1 MOL1         0.1043
      15    H7      18.151641   15.295931   19.907639 H          1 MOL1         0.0783
      16    O4      16.724610   14.326434   21.076793 O.3        1 MOL1        -0.3740
      17    C6      18.194088   13.187136   19.506872 C.3        1 MOL1         0.0138
      18    H8      19.083687   13.357025   18.885290 H          1 MOL1         0.0794
      19    H9      17.323953   13.181475   18.836792 H          1 MOL1         0.0794
      20    O5      18.309495   11.929936   20.185369 O.3        1 MOL1        -0.5486
      21    H10     18.315282   11.222863   19.503613 H          1 MOL1         0.3769
      22    C7      14.696179   20.320396   20.880948 C.3        1 MOL1         0.2972
      23    H11     13.994437   21.138609   20.675197 H          1 MOL1         0.0751
      24    O6      15.999625   20.811647   21.248944 O.3        1 MOL1        -0.3740
      25    C8      14.173463   19.469591   22.060891 C.3        1 MOL1         0.1003
      26    H12     13.195923   19.063568   21.769525 H          1 MOL1         0.0783
      27    O7      14.021087   20.285815   23.233613 O.3        1 MOL1        -0.5519
      28    H13     14.737671   20.967002   23.205389 H          1 MOL1         0.3769
      29    C9      15.120206   18.281327   22.352608 C.3        1 MOL1         0.1053
      30    H14     16.058035   18.689929   22.748761 H          1 MOL1         0.0783
      31    O8      14.504738   17.447147   23.340515 O.3        1 MOL1        -0.5519
      32    H15     14.104146   18.075354   23.984252 H          1 MOL1         0.3769
      33    C10     15.441838   17.477761   21.058704 C.3        1 MOL1         0.1018
      34    H16     14.568487   16.870631   20.788494 H          1 MOL1         0.0783
      35    C11     15.809243   18.401345   19.863823 C.3        1 MOL1         0.1043
      36    H17     16.793619   18.842402   20.066352 H          1 MOL1         0.0783
      37    O9      14.834252   19.464366   19.728876 O.3        1 MOL1        -0.3740
      38    C12     15.922112   17.653352   18.512052 C.3        1 MOL1         0.0138
      39    H18     16.839365   17.049446   18.521861 H          1 MOL1         0.0794
      40    H19     16.031556   18.395122   17.710028 H          1 MOL1         0.0794
      41    O10     14.793548   16.811325   18.249068 O.3        1 MOL1        -0.5486
      42    H20     14.862014   16.031976   18.841366 H          1 MOL1         0.3769
      43    C13     18.505045   24.095668   20.787041 C.3        1 MOL1         0.2972
      44    H21     18.952173   25.070799   20.554948 H          1 MOL1         0.0751
      45    O11     19.511236   23.128187   21.151265 O.3        1 MOL1        -0.3740
      46    C14     17.448817   24.215093   21.921928 C.3        1 MOL1         0.1003
      47    H22     16.657876   24.882143   21.554973 H          1 MOL1         0.0783
      48    O12     18.002564   24.773150   23.122796 O.3        1 MOL1        -0.5519
      49    H23     18.680398   24.131157   23.453153 H          1 MOL1         0.3769
      50    C15     16.809269   22.836602   22.214207 C.3        1 MOL1         0.1053
      51    H24     17.584470   22.183480   22.635810 H          1 MOL1         0.0783
      52    O13     15.741073   22.984963   23.156116 O.3        1 MOL1        -0.5519
      53    H25     16.093361   23.578221   23.856176 H          1 MOL1         0.3769
      54    C16     16.271413   22.185044   20.916905 C.3        1 MOL1         0.1018
      55    H26     15.364733   22.727020   20.617655 H          1 MOL1         0.0783
      56    C17     17.307217   22.223840   19.757156 C.3        1 MOL1         0.1043
      57    H27     18.131445   21.545847   20.009885 H          1 MOL1         0.0783
      58    O14     17.821612   23.573531   19.625584 O.3        1 MOL1        -0.3740
      59    C18     16.768838   21.764642   18.378202 C.3        1 MOL1         0.0138
      60    H28     16.858186   20.672849   18.315563 H          1 MOL1         0.0794
      61    H29     17.416450   22.181546   17.595388 H          1 MOL1         0.0794
      62    O15     15.408959   22.146571   18.145134 O.3        1 MOL1        -0.5486
      63    H30     14.848757   21.407929   18.473315 H          1 MOL1         0.3769
      64    C19     23.360141   22.533968   22.436563 C.3        1 MOL1         0.2972
      65    H31     24.381246   22.582206   22.836184 H          1 MOL1         0.0751
      66    O16     23.116757   21.296536   21.738395 O.3        1 MOL1        -0.3740
      67    C20     22.327888   22.662060   23.583504 C.3        1 MOL1         0.1003
      68    H32     22.483283   23.639144   24.059330 H          1 MOL1         0.0783
      69    O17     22.495050   21.619907   24.559722 O.3        1 MOL1        -0.5519
      70    H33     23.370057   21.195115   24.384744 H          1 MOL1         0.3769
      71    C21     20.891765   22.613203   23.021222 C.3        1 MOL1         0.1053
      72    H34     20.734145   21.604638   22.625598 H          1 MOL1         0.0783
      73    O18     19.963008   22.864350   24.080228 O.3        1 MOL1        -0.5519
      74    H35     20.324555   22.366415   24.847929 H          1 MOL1         0.3769
      75    C22     20.674952   23.607033   21.853734 C.3        1 MOL1         0.1018
      76    H36     20.531145   24.614881   22.264679 H          1 MOL1         0.0783
      77    C23     21.848460   23.605553   20.831218 C.3        1 MOL1         0.1043
      78    H37     21.773382   22.687037   20.235259 H          1 MOL1         0.0783
      79    O19     23.128454   23.618334   21.513565 O.3        1 MOL1        -0.3740
      80    C24     21.807491   24.792945   19.839865 C.3        1 MOL1         0.0138
      81    H38     20.972164   24.637078   19.143935 H          1 MOL1         0.0794
      82    H39     22.731481   24.785649   19.246191 H          1 MOL1         0.0794
      83    O20     21.654413   26.051152   20.508256 O.3        1 MOL1        -0.5486
      84    H40     21.720611   26.759053   19.830496 H          1 MOL1         0.3769
      85    C25     25.062339   17.690555   20.997847 C.3        1 MOL1         0.2972
      86    H41     25.786251   16.915499   20.715413 H          1 MOL1         0.0751
      87    O21     23.751276   17.141838   21.245014 O.3        1 MOL1        -0.3740
      88    C26     25.513660   18.413792   22.292382 C.3        1 MOL1         0.1003
      89    H42     26.484446   18.882555   22.084851 H          1 MOL1         0.0783
      90    O22     25.663694   17.486142   23.378984 O.3        1 MOL1        -0.5519
      91    H43     24.915589   16.838720   23.324289 H          1 MOL1         0.3769
      92    C27     24.514333   19.535526   22.670748 C.3        1 MOL1         0.1053
      93    H44     23.556847   19.068074   22.938701 H          1 MOL1         0.0783
      94    O23     25.028952   20.259418   23.793621 O.3        1 MOL1        -0.5519
      95    H45     25.399109   19.568216   24.389024 H          1 MOL1         0.3769
      96    C28     24.272494   20.484692   21.465956 C.3        1 MOL1         0.1018
      97    H46     25.168062   21.099307   21.307221 H          1 MOL1         0.0783
      98    C29     23.955013   19.702942   20.162778 C.3        1 MOL1         0.1043
      99    H47     22.977186   19.222331   20.278942 H          1 MOL1         0.0783
     100    O24     24.956906   18.681225   19.951850 O.3        1 MOL1        -0.3740
     101    C30     23.867202   20.595415   18.899161 C.3        1 MOL1         0.0138
     102    H48     22.887947   21.091740   18.892144 H          1 MOL1         0.0794
     103    H49     23.906985   19.950007   18.011655 H          1 MOL1         0.0794
     104    O25     24.904412   21.581824   18.838587 O.3        1 MOL1        -0.5486
     105    H50     24.706465   22.257267   19.523491 H          1 MOL1         0.3769
     106    C31     21.395355   13.786503   20.829896 C.3        1 MOL1         0.2972
     107    H51     20.956043   12.797292   20.647650 H          1 MOL1         0.0751
     108    O26     20.372444   14.797110   20.982501 O.3        1 MOL1        -0.3740
     109    C32     22.323213   13.768539   22.074923 C.3        1 MOL1         0.1003
     110    H52     23.161220   13.098706   21.841508 H          1 MOL1         0.0783
     111    O27     21.656833   13.275890   23.245725 O.3        1 MOL1        -0.5519
     112    H53     20.952147   13.933771   23.468082 H          1 MOL1         0.3769
     113    C33     22.900979   15.181805   22.323224 C.3        1 MOL1         0.1053
     114    H54     22.070323   15.855782   22.570859 H          1 MOL1         0.0783
     115    O28     23.828482   15.140158   23.412185 O.3        1 MOL1        -0.5519
     116    H55     23.393445   14.588330   24.099962 H          1 MOL1         0.3769
     117    C34     23.605623   15.721599   21.054371 C.3        1 MOL1         0.1018
     118    H56     24.574840   15.214260   20.961382 H          1 MOL1         0.0783
     119    C35     22.773356   15.509482   19.757085 C.3        1 MOL1         0.1043
     120    H57     21.945733   16.228534   19.762845 H          1 MOL1         0.0783
     121    O29     22.224573   14.167649   19.711958 O.3        1 MOL1        -0.3740
     122    C36     23.585214   15.750837   18.461945 C.3        1 MOL1         0.0138
     123    H58     23.795752   16.825250   18.377031 H          1 MOL1         0.0794
     124    H59     22.963269   15.471444   17.601034 H          1 MOL1         0.0794
     125    O30     24.814074   15.013123   18.449264 O.3        1 MOL1        -0.5486
     126    H60     25.252460   15.180075   17.586431 H          1 MOL1         0.3769
     127    N1      19.368589   18.174087   24.599459 N.4        1 MOL1        -0.5891
     128    H1      20.105359   17.550796   24.249524 H          1 MOL1         0.3726
     129    H2      18.479260   17.656127   24.500355 H          1 MOL1         0.3726
     130    H3      19.528401   18.306600   25.602723 H          1 MOL1         0.3726
     131    C1      19.327161   19.492043   23.854028 C.3        1 MOL1         0.0314
     132    H4      20.270070   20.017750   24.030886 H          1 MOL1         0.0999
     133    H5      18.519111   20.088343   24.287047 H          1 MOL1         0.0999
     134    C2      19.087902   19.336218   22.340641 C.3        1 MOL1        -0.1308
     135    H6      18.227366   18.679247   22.170768 H          1 MOL1         0.1025
     136    H7      18.815346   20.315346   21.928455 H          1 MOL1         0.1025
     137    C3      20.324882   18.800538   21.584700 C.3        1 MOL1        -0.1243
     138    H8      20.664369   17.849153   22.014874 H          1 MOL1         0.1025
     139    H9      21.156986   19.505570   21.703120 H          1 MOL1         0.1025
     140    C4      20.019365   18.604805   20.084460 C.3        1 MOL1        -0.2258
     141    H10     20.911703   18.266124   19.545006 H          1 MOL1         0.1036
     142    H11     19.686103   19.543501   19.623673 H          1 MOL1         0.1036
     143    H12     19.233911   17.851189   19.940319 H          1 MOL1         0.1036
@<TRIPOS>BOND
    1     1     2    1
    2     1     3    1
    3     1     4    1
    4     4     5    1
    5     4     6    1
    6     6     7    1
    7     4     8    1
    8     8     9    1
    9     8    10    1
   10    10    11    1
   11     8    12    1
   12    12    13    1
   13    12    14    1
   14    14    15    1
   15     1    16    1
   16    14    16    1
   17    14    17    1
   18    17    18    1
   19    17    19    1
   20    17    20    1
   21    20    21    1
   22    22    23    1
   23    22    24    1
   24    22    25    1
   25    25    26    1
   26    25    27    1
   27    27    28    1
   28    25    29    1
   29    29    30    1
   30    29    31    1
   31    31    32    1
   32     3    33    1
   33    29    33    1
   34    33    34    1
   35    33    35    1
   36    35    36    1
   37    22    37    1
   38    35    37    1
   39    35    38    1
   40    38    39    1
   41    38    40    1
   42    38    41    1
   43    41    42    1
   44    43    44    1
   45    43    45    1
   46    43    46    1
   47    46    47    1
   48    46    48    1
   49    48    49    1
   50    46    50    1
   51    50    51    1
   52    50    52    1
   53    52    53    1
   54    24    54    1
   55    50    54    1
   56    54    55    1
   57    54    56    1
   58    56    57    1
   59    43    58    1
   60    56    58    1
   61    56    59    1
   62    59    60    1
   63    59    61    1
   64    59    62    1
   65    62    63    1
   66    64    65    1
   67    64    66    1
   68    64    67    1
   69    67    68    1
   70    67    69    1
   71    69    70    1
   72    67    71    1
   73    71    72    1
   74    71    73    1
   75    73    74    1
   76    45    75    1
   77    71    75    1
   78    75    76    1
   79    75    77    1
   80    77    78    1
   81    64    79    1
   82    77    79    1
   83    77    80    1
   84    80    81    1
   85    80    82    1
   86    80    83    1
   87    83    84    1
   88    85    86    1
   89    85    87    1
   90    85    88    1
   91    88    89    1
   92    88    90    1
   93    90    91    1
   94    88    92    1
   95    92    93    1
   96    92    94    1
   97    94    95    1
   98    66    96    1
   99    92    96    1
  100    96    97    1
  101    96    98    1
  102    98    99    1
  103    85   100    1
  104    98   100    1
  105    98   101    1
  106   101   102    1
  107   101   103    1
  108   101   104    1
  109   104   105    1
  110   106   107    1
  111    12   108    1
  112   106   108    1
  113   106   109    1
  114   109   110    1
  115   109   111    1
  116   111   112    1
  117   109   113    1
  118   113   114    1
  119   113   115    1
  120   115   116    1
  121    87   117    1
  122   113   117    1
  123   117   118    1
  124   117   119    1
  125   119   120    1
  126   106   121    1
  127   119   121    1
  128   119   122    1
  129   122   123    1
  130   122   124    1
  131   122   125    1
  132   125   126    1
  133   127   128    1
  134   127   129    1
  135   127   130    1
  136   127   131    1
  137   131   132    1
  138   131   133    1
  139   131   134    1
  140   134   135    1
  141   134   136    1
  142   134   137    1
  143   137   138    1
  144   137   139    1
  145   137   140    1
  146   140   141    1
  147   140   142    1
  148   140   143    1
@<TRIPOS>SUBSTRUCTURE
       1 MOL1            1 RESIDUE      1      MOL     
       2 MOL1          143 RESIDUE      1      MOL     
@<SCITEGIC>MOL_PROPERTY
feprocess Rank
SciTegic.value.IntegerValue
3

@<SCITEGIC>MOL_PROPERTY
Conf_Id
SciTegic.value.IntegerValue
913

@<SCITEGIC>MOL_PROPERTY
Probability
SciTegic.value.DoubleValue
14.78

@<SCITEGIC>MOL_PROPERTY
G
SciTegic.value.DoubleValue
550.167

@<SCITEGIC>MOL_PROPERTY
E
SciTegic.value.DoubleValue
362.897

@<SCITEGIC>MOL_PROPERTY
-TS
SciTegic.value.DoubleValue
187.270

@<SCITEGIC>MOL_PROPERTY
U+W
SciTegic.value.DoubleValue
236.809

@<SCITEGIC>MOL_PROPERTY
U
SciTegic.value.DoubleValue
327.214

@<SCITEGIC>MOL_PROPERTY
W
SciTegic.value.DoubleValue
-90.405

@<SCITEGIC>MOL_PROPERTY
W(PB)
SciTegic.value.DoubleValue
-96.446

@<SCITEGIC>MOL_PROPERTY
W(SA)
SciTegic.value.DoubleValue
6.041

@<SCITEGIC>MOL_PROPERTY
Valence
SciTegic.value.DoubleValue
145.893

@<SCITEGIC>MOL_PROPERTY
Coulomb
SciTegic.value.DoubleValue
202.628

@<SCITEGIC>MOL_PROPERTY
VdW
SciTegic.value.DoubleValue
-21.307

@<SCITEGIC>MOL_PROPERTY
VdW6
SciTegic.value.DoubleValue
-172.144

@<SCITEGIC>MOL_PROPERTY
VdW12
SciTegic.value.DoubleValue
150.836

@<SCITEGIC>MOL_PROPERTY
Bond
SciTegic.value.DoubleValue
4.602

@<SCITEGIC>MOL_PROPERTY
Angle
SciTegic.value.DoubleValue
11.729

@<SCITEGIC>MOL_PROPERTY
Pdih
SciTegic.value.DoubleValue
129.562

@<SCITEGIC>MOL_PROPERTY
Idih
SciTegic.value.DoubleValue
0.000

@<SCITEGIC>MOL_PROPERTY
Tether
SciTegic.value.DoubleValue
0.000

@<TRIPOS>MOLECULE
CD_guest-1_fast_vm2_rndm.mol2 : feprocess host+ligand conformer 4
         143         148           2
SMALL
USER_CHARGES
 
@<TRIPOS>ATOM
       1    C1      16.117155   15.086161   21.524275 C.3        1 MOL1         0.2972
       2    H1      15.033542   14.928378   21.597773 H          1 MOL1         0.0751
       3    O1      16.444354   16.469851   21.268887 O.3        1 MOL1        -0.3740
       4    C2      16.813613   14.645172   22.835978 C.3        1 MOL1         0.1003
       5    H2      16.646045   13.566497   22.953025 H          1 MOL1         0.0783
       6    O2      16.274215   15.331592   23.976418 O.3        1 MOL1        -0.5519
       7    H3      15.790433   16.127173   23.640820 H          1 MOL1         0.3769
       8    C3      18.336196   14.884175   22.737447 C.3        1 MOL1         0.1053
       9    H4      18.492720   15.965569   22.673444 H          1 MOL1         0.0783
      10    O3      18.979150   14.374770   23.909463 O.3        1 MOL1        -0.5519
      11    H5      18.404434   14.663523   24.653979 H          1 MOL1         0.3769
      12    C4      18.939932   14.230978   21.469169 C.3        1 MOL1         0.1018
      13    H6      19.040130   13.152470   21.650146 H          1 MOL1         0.0783
      14    C5      18.087686   14.486386   20.190922 C.3        1 MOL1         0.1043
      15    H7      18.243357   15.528293   19.883129 H          1 MOL1         0.0783
      16    O4      16.676704   14.285562   20.461797 O.3        1 MOL1        -0.3740
      17    C6      18.488407   13.593681   18.992041 C.3        1 MOL1         0.0138
      18    H8      19.463231   13.932175   18.615586 H          1 MOL1         0.0794
      19    H9      17.758002   13.742464   18.185456 H          1 MOL1         0.0794
      20    O5      18.560649   12.207709   19.349503 O.3        1 MOL1        -0.5486
      21    H10     18.740454   11.697551   18.529646 H          1 MOL1         0.3769
      22    C7      14.828144   20.230528   20.602519 C.3        1 MOL1         0.2972
      23    H11     14.208417   21.093295   20.326478 H          1 MOL1         0.0751
      24    O6      16.182770   20.631542   20.897662 O.3        1 MOL1        -0.3740
      25    C8      14.219523   19.468625   21.811975 C.3        1 MOL1         0.1003
      26    H12     13.235616   19.099260   21.494418 H          1 MOL1         0.0783
      27    O7      14.044952   20.317743   22.955973 O.3        1 MOL1        -0.5519
      28    H13     14.948307   20.610002   23.237954 H          1 MOL1         0.3769
      29    C9      15.089167   18.242133   22.178039 C.3        1 MOL1         0.1053
      30    H14     16.058157   18.608927   22.542706 H          1 MOL1         0.0783
      31    O8      14.438727   17.491332   23.207291 O.3        1 MOL1        -0.5519
      32    H15     14.091359   18.164583   23.835030 H          1 MOL1         0.3769
      33    C10     15.341868   17.340562   20.942248 C.3        1 MOL1         0.1018
      34    H16     14.427031   16.777527   20.715094 H          1 MOL1         0.0783
      35    C11     15.758463   18.152470   19.684389 C.3        1 MOL1         0.1043
      36    H17     16.788285   18.504819   19.825567 H          1 MOL1         0.0783
      37    O9      14.883690   19.295923   19.504812 O.3        1 MOL1        -0.3740
      38    C12     15.731302   17.308572   18.387465 C.3        1 MOL1         0.0138
      39    H18     16.515837   16.543232   18.454005 H          1 MOL1         0.0794
      40    H19     15.979395   17.960407   17.539222 H          1 MOL1         0.0794
      41    O10     14.459867   16.680629   18.177830 O.3        1 MOL1        -0.5486
      42    H20     14.509438   16.180922   17.334060 H          1 MOL1         0.3769
      43    C13     18.597501   23.830846   21.897957 C.3        1 MOL1         0.2972
      44    H21     19.025662   24.789481   22.217570 H          1 MOL1         0.0751
      45    O11     19.587022   22.987674   21.274785 O.3        1 MOL1        -0.3740
      46    C14     18.000457   23.077879   23.113169 C.3        1 MOL1         0.1003
      47    H22     17.216084   23.717724   23.538181 H          1 MOL1         0.0783
      48    O12     19.003304   22.822559   24.116311 O.3        1 MOL1        -0.5519
      49    H23     19.713121   23.495173   23.969691 H          1 MOL1         0.3769
      50    C15     17.351707   21.750832   22.657867 C.3        1 MOL1         0.1053
      51    H24     18.153861   21.097296   22.297160 H          1 MOL1         0.0783
      52    O13     16.689126   21.151758   23.775814 O.3        1 MOL1        -0.5519
      53    H25     17.298068   21.299834   24.533288 H          1 MOL1         0.3769
      54    C16     16.365762   21.940350   21.480300 C.3        1 MOL1         0.1018
      55    H26     15.427476   22.359308   21.867183 H          1 MOL1         0.0783
      56    C17     16.942422   22.861195   20.367281 C.3        1 MOL1         0.1043
      57    H27     17.720289   22.300507   19.832807 H          1 MOL1         0.0783
      58    O14     17.533736   24.051731   20.947676 O.3        1 MOL1        -0.3740
      59    C18     15.891063   23.296414   19.318439 C.3        1 MOL1         0.0138
      60    H28     15.632364   22.424616   18.702357 H          1 MOL1         0.0794
      61    H29     16.347776   24.041448   18.653200 H          1 MOL1         0.0794
      62    O15     14.707819   23.829572   19.926332 O.3        1 MOL1        -0.5486
      63    H30     14.125800   24.159356   19.207064 H          1 MOL1         0.3769
      64    C19     23.693449   22.799030   20.779835 C.3        1 MOL1         0.2972
      65    H31     24.752454   22.946574   20.531479 H          1 MOL1         0.0751
      66    O16     23.414244   21.429741   21.137140 O.3        1 MOL1        -0.3740
      67    C20     23.243124   23.731561   21.935178 C.3        1 MOL1         0.1003
      68    H32     23.332363   24.763340   21.570636 H          1 MOL1         0.0783
      69    O17     24.065779   23.583481   23.101612 O.3        1 MOL1        -0.5519
      70    H33     24.013388   22.635206   23.379565 H          1 MOL1         0.3769
      71    C21     21.754773   23.476040   22.277813 C.3        1 MOL1         0.1053
      72    H34     21.665855   22.451474   22.659705 H          1 MOL1         0.0783
      73    O18     21.341300   24.402837   23.288330 O.3        1 MOL1        -0.5519
      74    H35     22.130151   24.516059   23.866367 H          1 MOL1         0.3769
      75    C22     20.864823   23.596817   21.008321 C.3        1 MOL1         0.1018
      76    H36     20.757089   24.656993   20.746195 H          1 MOL1         0.0783
      77    C23     21.453805   22.828072   19.792157 C.3        1 MOL1         0.1043
      78    H37     21.330571   21.752769   19.977562 H          1 MOL1         0.0783
      79    O19     22.865332   23.125241   19.643077 O.3        1 MOL1        -0.3740
      80    C24     20.734297   23.134487   18.454950 C.3        1 MOL1         0.0138
      81    H38     19.751636   22.644446   18.466862 H          1 MOL1         0.0794
      82    H39     21.311289   22.681035   17.638110 H          1 MOL1         0.0794
      83    O20     20.570249   24.538519   18.220052 O.3        1 MOL1        -0.5486
      84    H40     19.854532   24.855113   18.812302 H          1 MOL1         0.3769
      85    C25     24.894770   17.766901   22.180348 C.3        1 MOL1         0.2972
      86    H41     25.463605   16.879568   22.487170 H          1 MOL1         0.0751
      87    O21     23.593695   17.417408   21.670392 O.3        1 MOL1        -0.3740
      88    C26     24.703984   18.719726   23.382886 C.3        1 MOL1         0.1003
      89    H42     25.701764   19.042386   23.708006 H          1 MOL1         0.0783
      90    O22     24.037518   18.056032   24.470147 O.3        1 MOL1        -0.5519
      91    H43     23.955831   17.102544   24.222312 H          1 MOL1         0.3769
      92    C27     23.900445   19.968921   22.959419 C.3        1 MOL1         0.1053
      93    H44     22.884610   19.640160   22.712721 H          1 MOL1         0.0783
      94    O23     23.853284   20.882133   24.060731 O.3        1 MOL1        -0.5519
      95    H45     23.858166   20.296486   24.852380 H          1 MOL1         0.3769
      96    C28     24.487934   20.649776   21.696958 C.3        1 MOL1         0.1018
      97    H46     25.346084   21.268853   21.990336 H          1 MOL1         0.0783
      98    C29     24.901456   19.633894   20.590917 C.3        1 MOL1         0.1043
      99    H47     23.982886   19.279220   20.106840 H          1 MOL1         0.0783
     100    O24     25.599810   18.492649   21.152390 O.3        1 MOL1        -0.3740
     101    C30     25.784065   20.256517   19.483182 C.3        1 MOL1         0.0138
     102    H48     25.165345   20.943601   18.890128 H          1 MOL1         0.0794
     103    H49     26.119260   19.455977   18.810061 H          1 MOL1         0.0794
     104    O25     26.910447   20.959583   20.021929 O.3        1 MOL1        -0.5486
     105    H50     27.463667   21.259092   19.267523 H          1 MOL1         0.3769
     106    C31     21.319868   14.006486   20.906147 C.3        1 MOL1         0.2972
     107    H51     20.975189   13.014962   20.585090 H          1 MOL1         0.0751
     108    O26     20.216868   14.865411   21.259673 O.3        1 MOL1        -0.3740
     109    C32     22.265165   13.899966   22.133859 C.3        1 MOL1         0.1003
     110    H52     23.128316   13.294303   21.828424 H          1 MOL1         0.0783
     111    O27     21.615617   13.260705   23.243780 O.3        1 MOL1        -0.5519
     112    H53     20.761365   13.736690   23.404004 H          1 MOL1         0.3769
     113    C33     22.787095   15.299557   22.546229 C.3        1 MOL1         0.1053
     114    H54     21.932852   15.885068   22.908948 H          1 MOL1         0.0783
     115    O28     23.754383   15.163039   23.592862 O.3        1 MOL1        -0.5519
     116    H55     23.381808   14.480398   24.195796 H          1 MOL1         0.3769
     117    C34     23.405345   16.034251   21.327611 C.3        1 MOL1         0.1018
     118    H56     24.354199   15.549236   21.063221 H          1 MOL1         0.0783
     119    C35     22.464573   16.010518   20.094582 C.3        1 MOL1         0.1043
     120    H57     21.580325   16.618019   20.323555 H          1 MOL1         0.0783
     121    O29     22.054191   14.645975   19.837368 O.3        1 MOL1        -0.3740
     122    C36     23.093004   16.606119   18.807933 C.3        1 MOL1         0.0138
     123    H58     22.938421   17.692761   18.820107 H          1 MOL1         0.0794
     124    H59     22.548007   16.216232   17.937947 H          1 MOL1         0.0794
     125    O30     24.492858   16.325699   18.681155 O.3        1 MOL1        -0.5486
     126    H60     24.957970   16.842565   19.376574 H          1 MOL1         0.3769
     127    N1      21.149433   21.095907   25.433663 N.4        1 MOL1        -0.5891
     128    H1      20.292443   21.662888   25.349726 H          1 MOL1         0.3726
     129    H2      21.879083   21.567038   24.883519 H          1 MOL1         0.3726
     130    H3      21.448889   21.117286   26.412923 H          1 MOL1         0.3726
     131    C1      20.930546   19.683691   24.930965 C.3        1 MOL1         0.0314
     132    H4      20.377861   19.124673   25.690644 H          1 MOL1         0.0999
     133    H5      21.908483   19.213682   24.797775 H          1 MOL1         0.0999
     134    C2      20.145739   19.672071   23.611771 C.3        1 MOL1        -0.1308
     135    H6      19.103841   19.913720   23.843215 H          1 MOL1         0.1025
     136    H7      20.524898   20.457004   22.944408 H          1 MOL1         0.1025
     137    C3      20.199095   18.318577   22.881118 C.3        1 MOL1        -0.1243
     138    H8      19.809301   17.529227   23.537503 H          1 MOL1         0.1025
     139    H9      21.240577   18.059460   22.657960 H          1 MOL1         0.1025
     140    C4      19.388813   18.373881   21.567122 C.3        1 MOL1        -0.2258
     141    H10     19.433083   17.416451   21.035710 H          1 MOL1         0.1036
     142    H11     18.333333   18.597203   21.767308 H          1 MOL1         0.1036
     143    H12     19.778792   19.149455   20.895233 H          1 MOL1         0.1036
@<TRIPOS>BOND
    1     1     2    1
    2     1     3    1
    3     1     4    1
    4     4     5    1
    5     4     6    1
    6     6     7    1
    7     4     8    1
    8     8     9    1
    9     8    10    1
   10    10    11    1
   11     8    12    1
   12    12    13    1
   13    12    14    1
   14    14    15    1
   15     1    16    1
   16    14    16    1
   17    14    17    1
   18    17    18    1
   19    17    19    1
   20    17    20    1
   21    20    21    1
   22    22    23    1
   23    22    24    1
   24    22    25    1
   25    25    26    1
   26    25    27    1
   27    27    28    1
   28    25    29    1
   29    29    30    1
   30    29    31    1
   31    31    32    1
   32     3    33    1
   33    29    33    1
   34    33    34    1
   35    33    35    1
   36    35    36    1
   37    22    37    1
   38    35    37    1
   39    35    38    1
   40    38    39    1
   41    38    40    1
   42    38    41    1
   43    41    42    1
   44    43    44    1
   45    43    45    1
   46    43    46    1
   47    46    47    1
   48    46    48    1
   49    48    49    1
   50    46    50    1
   51    50    51    1
   52    50    52    1
   53    52    53    1
   54    24    54    1
   55    50    54    1
   56    54    55    1
   57    54    56    1
   58    56    57    1
   59    43    58    1
   60    56    58    1
   61    56    59    1
   62    59    60    1
   63    59    61    1
   64    59    62    1
   65    62    63    1
   66    64    65    1
   67    64    66    1
   68    64    67    1
   69    67    68    1
   70    67    69    1
   71    69    70    1
   72    67    71    1
   73    71    72    1
   74    71    73    1
   75    73    74    1
   76    45    75    1
   77    71    75    1
   78    75    76    1
   79    75    77    1
   80    77    78    1
   81    64    79    1
   82    77    79    1
   83    77    80    1
   84    80    81    1
   85    80    82    1
   86    80    83    1
   87    83    84    1
   88    85    86    1
   89    85    87    1
   90    85    88    1
   91    88    89    1
   92    88    90    1
   93    90    91    1
   94    88    92    1
   95    92    93    1
   96    92    94    1
   97    94    95    1
   98    66    96    1
   99    92    96    1
  100    96    97    1
  101    96    98    1
  102    98    99    1
  103    85   100    1
  104    98   100    1
  105    98   101    1
  106   101   102    1
  107   101   103    1
  108   101   104    1
  109   104   105    1
  110   106   107    1
  111    12   108    1
  112   106   108    1
  113   106   109    1
  114   109   110    1
  115   109   111    1
  116   111   112    1
  117   109   113    1
  118   113   114    1
  119   113   115    1
  120   115   116    1
  121    87   117    1
  122   113   117    1
  123   117   118    1
  124   117   119    1
  125   119   120    1
  126   106   121    1
  127   119   121    1
  128   119   122    1
  129   122   123    1
  130   122   124    1
  131   122   125    1
  132   125   126    1
  133   127   128    1
  134   127   129    1
  135   127   130    1
  136   127   131    1
  137   131   132    1
  138   131   133    1
  139   131   134    1
  140   134   135    1
  141   134   136    1
  142   134   137    1
  143   137   138    1
  144   137   139    1
  145   137   140    1
  146   140   141    1
  147   140   142    1
  148   140   143    1
@<TRIPOS>SUBSTRUCTURE
       1 MOL1            1 RESIDUE      1      MOL     
       2 MOL1          143 RESIDUE      1      MOL     
@<SCITEGIC>MOL_PROPERTY
feprocess Rank
SciTegic.value.IntegerValue
4

@<SCITEGIC>MOL_PROPERTY
Conf_Id
SciTegic.value.IntegerValue
163

@<SCITEGIC>MOL_PROPERTY
Probability
SciTegic.value.DoubleValue
12.82

@<SCITEGIC>MOL_PROPERTY
G
SciTegic.value.DoubleValue
550.252

@<SCITEGIC>MOL_PROPERTY
E
SciTegic.value.DoubleValue
362.899

@<SCITEGIC>MOL_PROPERTY
-TS
SciTegic.value.DoubleValue
187.354

@<SCITEGIC>MOL_PROPERTY
U+W
SciTegic.value.DoubleValue
236.810

@<SCITEGIC>MOL_PROPERTY
U
SciTegic.value.DoubleValue
326.573

@<SCITEGIC>MOL_PROPERTY
W
SciTegic.value.DoubleValue
-89.762

@<SCITEGIC>MOL_PROPERTY
W(PB)
SciTegic.value.DoubleValue
-95.875

@<SCITEGIC>MOL_PROPERTY
W(SA)
SciTegic.value.DoubleValue
6.113

@<SCITEGIC>MOL_PROPERTY
Valence
SciTegic.value.DoubleValue
146.424

@<SCITEGIC>MOL_PROPERTY
Coulomb
SciTegic.value.DoubleValue
199.800

@<SCITEGIC>MOL_PROPERTY
VdW
SciTegic.value.DoubleValue
-19.651

@<SCITEGIC>MOL_PROPERTY
VdW6
SciTegic.value.DoubleValue
-169.376

@<SCITEGIC>MOL_PROPERTY
VdW12
SciTegic.value.DoubleValue
149.725

@<SCITEGIC>MOL_PROPERTY
Bond
SciTegic.value.DoubleValue
4.687

@<SCITEGIC>MOL_PROPERTY
Angle
SciTegic.value.DoubleValue
11.843

@<SCITEGIC>MOL_PROPERTY
Pdih
SciTegic.value.DoubleValue
129.894

@<SCITEGIC>MOL_PROPERTY
Idih
SciTegic.value.DoubleValue
0.000

@<SCITEGIC>MOL_PROPERTY
Tether
SciTegic.value.DoubleValue
0.000

@<TRIPOS>MOLECULE
CD_guest-1_fast_vm2_rndm.mol2 : feprocess host+ligand conformer 5
         143         148           2
SMALL
USER_CHARGES
 
@<TRIPOS>ATOM
       1    C1      16.378913   15.321114   20.433349 C.3        1 MOL1         0.2972
       2    H1      15.374450   15.159849   20.021398 H          1 MOL1         0.0751
       3    O1      16.580072   16.703481   20.797144 O.3        1 MOL1        -0.3740
       4    C2      16.638765   14.399427   21.660780 C.3        1 MOL1         0.1003
       5    H2      16.563118   13.364184   21.303356 H          1 MOL1         0.0783
       6    O2      15.673991   14.594436   22.704774 O.3        1 MOL1        -0.5519
       7    H3      15.796133   15.518312   23.039372 H          1 MOL1         0.3769
       8    C3      18.073141   14.607214   22.204938 C.3        1 MOL1         0.1053
       9    H4      18.145808   15.629379   22.598005 H          1 MOL1         0.0783
      10    O3      18.340494   13.666779   23.250773 O.3        1 MOL1        -0.5519
      11    H5      17.525590   13.655242   23.801202 H          1 MOL1         0.3769
      12    C4      19.112408   14.445780   21.069793 C.3        1 MOL1         0.1018
      13    H6      19.156449   13.386746   20.782645 H          1 MOL1         0.0783
      14    C5      18.749373   15.290249   19.819007 C.3        1 MOL1         0.1043
      15    H7      18.837042   16.351876   20.081755 H          1 MOL1         0.0783
      16    O4      17.379989   14.998678   19.439984 O.3        1 MOL1        -0.3740
      17    C6      19.672640   15.055604   18.594253 C.3        1 MOL1         0.0138
      18    H8      20.501097   15.773205   18.642334 H          1 MOL1         0.0794
      19    H9      19.108159   15.287208   17.681148 H          1 MOL1         0.0794
      20    O5      20.197501   13.723564   18.523189 O.3        1 MOL1        -0.5486
      21    H10     20.855294   13.627249   19.250558 H          1 MOL1         0.3769
      22    C7      14.819137   20.288918   21.732419 C.3        1 MOL1         0.2972
      23    H11     14.177370   21.134339   22.012116 H          1 MOL1         0.0751
      24    O6      16.090939   20.730520   21.214314 O.3        1 MOL1        -0.3740
      25    C8      15.062300   19.370236   22.956197 C.3        1 MOL1         0.1003
      26    H12     14.086009   18.979681   23.272090 H          1 MOL1         0.0783
      27    O7      15.671372   20.078677   24.049347 O.3        1 MOL1        -0.5519
      28    H13     15.587328   21.044706   23.850051 H          1 MOL1         0.3769
      29    C9      15.960114   18.181760   22.559921 C.3        1 MOL1         0.1053
      30    H14     16.943390   18.597316   22.314575 H          1 MOL1         0.0783
      31    O8      16.067346   17.284878   23.670756 O.3        1 MOL1        -0.5519
      32    H15     15.987906   17.852992   24.467852 H          1 MOL1         0.3769
      33    C10     15.445398   17.435431   21.304510 C.3        1 MOL1         0.1018
      34    H16     14.618951   16.774683   21.597042 H          1 MOL1         0.0783
      35    C11     14.983890   18.401523   20.174199 C.3        1 MOL1         0.1043
      36    H17     15.881852   18.822918   19.704003 H          1 MOL1         0.0783
      37    O9      14.184472   19.486116   20.714804 O.3        1 MOL1        -0.3740
      38    C12     14.174029   17.702423   19.056325 C.3        1 MOL1         0.0138
      39    H18     14.857438   17.067716   18.476253 H          1 MOL1         0.0794
      40    H19     13.784229   18.469938   18.374252 H          1 MOL1         0.0794
      41    O10     13.101259   16.909411   19.579434 O.3        1 MOL1        -0.5486
      42    H20     12.585526   16.565329   18.817528 H          1 MOL1         0.3769
      43    C13     18.416919   24.107719   20.766339 C.3        1 MOL1         0.2972
      44    H21     18.851538   25.092052   20.549592 H          1 MOL1         0.0751
      45    O11     19.441538   23.122399   21.022791 O.3        1 MOL1        -0.3740
      46    C14     17.435828   24.176812   21.967760 C.3        1 MOL1         0.1003
      47    H22     16.610215   24.835777   21.668634 H          1 MOL1         0.0783
      48    O12     18.053860   24.720538   23.143023 O.3        1 MOL1        -0.5519
      49    H23     18.770088   24.090620   23.409335 H          1 MOL1         0.3769
      50    C15     16.841856   22.778242   22.263127 C.3        1 MOL1         0.1053
      51    H24     17.656506   22.128655   22.610099 H          1 MOL1         0.0783
      52    O13     15.847405   22.896933   23.286641 O.3        1 MOL1        -0.5519
      53    H25     16.225269   23.533788   23.934842 H          1 MOL1         0.3769
      54    C16     16.227956   22.145395   20.985200 C.3        1 MOL1         0.1018
      55    H26     15.259270   22.619597   20.782675 H          1 MOL1         0.0783
      56    C17     17.136944   22.295855   19.732810 C.3        1 MOL1         0.1043
      57    H27     17.981774   21.605650   19.838240 H          1 MOL1         0.0783
      58    O14     17.645919   23.649289   19.635256 O.3        1 MOL1        -0.3740
      59    C18     16.430936   21.928551   18.403921 C.3        1 MOL1         0.0138
      60    H28     16.306008   20.838298   18.364054 H          1 MOL1         0.0794
      61    H29     17.090533   22.208645   17.571894 H          1 MOL1         0.0794
      62    O15     15.156214   22.565829   18.255268 O.3        1 MOL1        -0.5486
      63    H30     14.518445   22.088464   18.828453 H          1 MOL1         0.3769
      64    C19     23.400158   22.556721   22.064804 C.3        1 MOL1         0.2972
      65    H31     24.441459   22.651497   22.397799 H          1 MOL1         0.0751
      66    O16     23.159166   21.287419   21.422781 O.3        1 MOL1        -0.3740
      67    C20     22.434240   22.699076   23.268123 C.3        1 MOL1         0.1003
      68    H32     22.599476   23.693185   23.703766 H          1 MOL1         0.0783
      69    O17     22.674149   21.693814   24.267311 O.3        1 MOL1        -0.5519
      70    H33     23.594386   21.362390   24.130021 H          1 MOL1         0.3769
      71    C21     20.967827   22.609918   22.796785 C.3        1 MOL1         0.1053
      72    H34     20.808564   21.591703   22.424916 H          1 MOL1         0.0783
      73    O18     20.109607   22.862193   23.913474 O.3        1 MOL1        -0.5519
      74    H35     20.559500   22.420364   24.668774 H          1 MOL1         0.3769
      75    C22     20.663461   23.585422   21.633794 C.3        1 MOL1         0.1018
      76    H36     20.567062   24.601753   22.038185 H          1 MOL1         0.0783
      77    C23     21.760266   23.549032   20.531226 C.3        1 MOL1         0.1043
      78    H37     21.656207   22.604960   19.980589 H          1 MOL1         0.0783
      79    O19     23.083074   23.604015   21.123524 O.3        1 MOL1        -0.3740
      80    C24     21.635046   24.696187   19.500191 C.3        1 MOL1         0.0138
      81    H38     20.750925   24.508076   18.876075 H          1 MOL1         0.0794
      82    H39     22.512020   24.670786   18.839543 H          1 MOL1         0.0794
      83    O20     21.521087   25.979077   20.128836 O.3        1 MOL1        -0.5486
      84    H40     21.527478   26.659623   19.420577 H          1 MOL1         0.3769
      85    C25     25.049698   17.609053   21.012623 C.3        1 MOL1         0.2972
      86    H41     25.727050   16.776789   20.781086 H          1 MOL1         0.0751
      87    O21     23.736410   17.145352   21.382235 O.3        1 MOL1        -0.3740
      88    C26     25.599205   18.473915   22.175222 C.3        1 MOL1         0.1003
      89    H42     26.556200   18.896027   21.841580 H          1 MOL1         0.0783
      90    O22     25.823216   17.688472   23.356601 O.3        1 MOL1        -0.5519
      91    H43     24.987398   17.192639   23.549623 H          1 MOL1         0.3769
      92    C27     24.639761   19.651792   22.480143 C.3        1 MOL1         0.1053
      93    H44     23.701432   19.236579   22.872353 H          1 MOL1         0.0783
      94    O23     25.246244   20.490830   23.469342 O.3        1 MOL1        -0.5519
      95    H45     25.671729   19.867532   24.101828 H          1 MOL1         0.3769
      96    C28     24.315444   20.458588   21.189795 C.3        1 MOL1         0.1018
      97    H46     25.190188   21.062993   20.917873 H          1 MOL1         0.0783
      98    C29     23.942490   19.539045   19.993772 C.3        1 MOL1         0.1043
      99    H47     22.955473   19.102428   20.189603 H          1 MOL1         0.0783
     100    O24     24.912237   18.471667   19.863427 O.3        1 MOL1        -0.3740
     101    C30     23.836937   20.287993   18.641966 C.3        1 MOL1         0.0138
     102    H48     22.913863   20.882961   18.643884 H          1 MOL1         0.0794
     103    H49     23.740857   19.545101   17.839077 H          1 MOL1         0.0794
     104    O25     24.959742   21.141612   18.389922 O.3        1 MOL1        -0.5486
     105    H50     24.873687   21.923000   18.977508 H          1 MOL1         0.3769
     106    C31     21.329490   13.894272   21.901706 C.3        1 MOL1         0.2972
     107    H51     20.844848   12.921051   22.054364 H          1 MOL1         0.0751
     108    O26     20.372989   14.920515   21.571371 O.3        1 MOL1        -0.3740
     109    C32     22.071102   14.318291   23.190083 C.3        1 MOL1         0.1003
     110    H52     22.850903   13.571074   23.387137 H          1 MOL1         0.0783
     111    O27     21.161766   14.367892   24.301879 O.3        1 MOL1        -0.5519
     112    H53     20.247521   14.302303   23.930571 H          1 MOL1         0.3769
     113    C33     22.752550   15.690439   22.995489 C.3        1 MOL1         0.1053
     114    H54     21.960261   16.440501   22.912572 H          1 MOL1         0.0783
     115    O28     23.562432   15.988503   24.135840 O.3        1 MOL1        -0.5519
     116    H55     23.002659   15.755031   24.910231 H          1 MOL1         0.3769
     117    C34     23.606951   15.747342   21.703226 C.3        1 MOL1         0.1018
     118    H56     24.577334   15.274674   21.905478 H          1 MOL1         0.0783
     119    C35     22.925390   15.080112   20.472707 C.3        1 MOL1         0.1043
     120    H57     22.155127   15.771409   20.110551 H          1 MOL1         0.0783
     121    O29     22.293885   13.824403   20.832279 O.3        1 MOL1        -0.3740
     122    C36     23.893009   14.824457   19.292732 C.3        1 MOL1         0.0138
     123    H58     24.170303   15.791965   18.852642 H          1 MOL1         0.0794
     124    H59     23.360668   14.255229   18.518755 H          1 MOL1         0.0794
     125    O30     25.072052   14.122800   19.705442 O.3        1 MOL1        -0.5486
     126    H60     25.600767   13.928894   18.900691 H          1 MOL1         0.3769
     127    N1      18.425823   19.668802   24.961870 N.4        1 MOL1        -0.5891
     128    H1      18.662826   18.932927   25.632843 H          1 MOL1         0.3726
     129    H2      17.464613   19.502441   24.625153 H          1 MOL1         0.3726
     130    H3      18.386250   20.553151   25.478217 H          1 MOL1         0.3726
     131    C1      19.410143   19.747689   23.814899 C.3        1 MOL1         0.0314
     132    H4      20.337227   20.188511   24.192982 H          1 MOL1         0.0999
     133    H5      18.986408   20.433735   23.077605 H          1 MOL1         0.0999
     134    C2      19.733533   18.395022   23.152296 C.3        1 MOL1        -0.1308
     135    H6      20.345440   17.800432   23.842917 H          1 MOL1         0.1025
     136    H7      18.818361   17.818127   22.985988 H          1 MOL1         0.1025
     137    C3      20.481835   18.568021   21.809733 C.3        1 MOL1        -0.1243
     138    H8      20.761756   17.581018   21.420499 H          1 MOL1         0.1025
     139    H9      21.420016   19.112606   21.982145 H          1 MOL1         0.1025
     140    C4      19.641930   19.298105   20.737368 C.3        1 MOL1        -0.2258
     141    H10     18.688281   18.783458   20.561153 H          1 MOL1         0.1036
     142    H11     20.184501   19.338689   19.784440 H          1 MOL1         0.1036
     143    H12     19.421712   20.329338   21.034577 H          1 MOL1         0.1036
@<TRIPOS>BOND
    1     1     2    1
    2     1     3    1
    3     1     4    1
    4     4     5    1
    5     4     6    1
    6     6     7    1
    7     4     8    1
    8     8     9    1
    9     8    10    1
   10    10    11    1
   11     8    12    1
   12    12    13    1
   13    12    14    1
   14    14    15    1
   15     1    16    1
   16    14    16    1
   17    14    17    1
   18    17    18    1
   19    17    19    1
   20    17    20    1
   21    20    21    1
   22    22    23    1
   23    22    24    1
   24    22    25    1
   25    25    26    1
   26    25    27    1
   27    27    28    1
   28    25    29    1
   29    29    30    1
   30    29    31    1
   31    31    32    1
   32     3    33    1
   33    29    33    1
   34    33    34    1
   35    33    35    1
   36    35    36    1
   37    22    37    1
   38    35    37    1
   39    35    38    1
   40    38    39    1
   41    38    40    1
   42    38    41    1
   43    41    42    1
   44    43    44    1
   45    43    45    1
   46    43    46    1
   47    46    47    1
   48    46    48    1
   49    48    49    1
   50    46    50    1
   51    50    51    1
   52    50    52    1
   53    52    53    1
   54    24    54    1
   55    50    54    1
   56    54    55    1
   57    54    56    1
   58    56    57    1
   59    43    58    1
   60    56    58    1
   61    56    59    1
   62    59    60    1
   63    59    61    1
   64    59    62    1
   65    62    63    1
   66    64    65    1
   67    64    66    1
   68    64    67    1
   69    67    68    1
   70    67    69    1
   71    69    70    1
   72    67    71    1
   73    71    72    1
   74    71    73    1
   75    73    74    1
   76    45    75    1
   77    71    75    1
   78    75    76    1
   79    75    77    1
   80    77    78    1
   81    64    79    1
   82    77    79    1
   83    77    80    1
   84    80    81    1
   85    80    82    1
   86    80    83    1
   87    83    84    1
   88    85    86    1
   89    85    87    1
   90    85    88    1
   91    88    89    1
   92    88    90    1
   93    90    91    1
   94    88    92    1
   95    92    93    1
   96    92    94    1
   97    94    95    1
   98    66    96    1
   99    92    96    1
  100    96    97    1
  101    96    98    1
  102    98    99    1
  103    85   100    1
  104    98   100    1
  105    98   101    1
  106   101   102    1
  107   101   103    1
  108   101   104    1
  109   104   105    1
  110   106   107    1
  111    12   108    1
  112   106   108    1
  113   106   109    1
  114   109   110    1
  115   109   111    1
  116   111   112    1
  117   109   113    1
  118   113   114    1
  119   113   115    1
  120   115   116    1
  121    87   117    1
  122   113   117    1
  123   117   118    1
  124   117   119    1
  125   119   120    1
  126   106   121    1
  127   119   121    1
  128   119   122    1
  129   122   123    1
  130   122   124    1
  131   122   125    1
  132   125   126    1
  133   127   128    1
  134   127   129    1
  135   127   130    1
  136   127   131    1
  137   131   132    1
  138   131   133    1
  139   131   134    1
  140   134   135    1
  141   134   136    1
  142   134   137    1
  143   137   138    1
  144   137   139    1
  145   137   140    1
  146   140   141    1
  147   140   142    1
  148   140   143    1
@<TRIPOS>SUBSTRUCTURE
       1 MOL1            1 RESIDUE      1      MOL     
       2 MOL1          143 RESIDUE      1      MOL     
@<SCITEGIC>MOL_PROPERTY
feprocess Rank
SciTegic.value.IntegerValue
5

@<SCITEGIC>MOL_PROPERTY
Conf_Id
SciTegic.value.IntegerValue
704

@<SCITEGIC>MOL_PROPERTY
Probability
SciTegic.value.DoubleValue
9.81

@<SCITEGIC>MOL_PROPERTY
G
SciTegic.value.DoubleValue
550.412

@<SCITEGIC>MOL_PROPERTY
E
SciTegic.value.DoubleValue
362.748

@<SCITEGIC>MOL_PROPERTY
-TS
SciTegic.value.DoubleValue
187.664

@<SCITEGIC>MOL_PROPERTY
U+W
SciTegic.value.DoubleValue
236.660

@<SCITEGIC>MOL_PROPERTY
U
SciTegic.value.DoubleValue
326.890

@<SCITEGIC>MOL_PROPERTY
W
SciTegic.value.DoubleValue
-90.230

@<SCITEGIC>MOL_PROPERTY
W(PB)
SciTegic.value.DoubleValue
-96.269

@<SCITEGIC>MOL_PROPERTY
W(SA)
SciTegic.value.DoubleValue
6.039

@<SCITEGIC>MOL_PROPERTY
Valence
SciTegic.value.DoubleValue
146.741

@<SCITEGIC>MOL_PROPERTY
Coulomb
SciTegic.value.DoubleValue
201.137

@<SCITEGIC>MOL_PROPERTY
VdW
SciTegic.value.DoubleValue
-20.988

@<SCITEGIC>MOL_PROPERTY
VdW6
SciTegic.value.DoubleValue
-172.162

@<SCITEGIC>MOL_PROPERTY
VdW12
SciTegic.value.DoubleValue
151.174

@<SCITEGIC>MOL_PROPERTY
Bond
SciTegic.value.DoubleValue
4.699

@<SCITEGIC>MOL_PROPERTY
Angle
SciTegic.value.DoubleValue
12.173

@<SCITEGIC>MOL_PROPERTY
Pdih
SciTegic.value.DoubleValue
129.870

@<SCITEGIC>MOL_PROPERTY
Idih
SciTegic.value.DoubleValue
0.000

@<SCITEGIC>MOL_PROPERTY
Tether
SciTegic.value.DoubleValue
0.000

@<TRIPOS>MOLECULE
CD_guest-1_fast_vm2_rndm.mol2 : feprocess host+ligand conformer 6
         143         148           2
SMALL
USER_CHARGES
 
@<TRIPOS>ATOM
       1    C1      16.296016   15.322797   20.467225 C.3        1 MOL1         0.2972
       2    H1      15.281758   15.175985   20.073975 H          1 MOL1         0.0751
       3    O1      16.487218   16.664793   20.960550 O.3        1 MOL1        -0.3740
       4    C2      16.607914   14.320886   21.612600 C.3        1 MOL1         0.1003
       5    H2      16.541653   13.310588   21.188290 H          1 MOL1         0.0783
       6    O2      15.666070   14.437836   22.690272 O.3        1 MOL1        -0.5519
       7    H3      15.696821   15.374829   23.010487 H          1 MOL1         0.3769
       8    C3      18.051471   14.526355   22.134760 C.3        1 MOL1         0.1053
       9    H4      18.093332   15.511594   22.609803 H          1 MOL1         0.0783
      10    O3      18.365960   13.517539   23.101617 O.3        1 MOL1        -0.5519
      11    H5      17.554223   13.429328   23.650435 H          1 MOL1         0.3769
      12    C4      19.076187   14.508599   20.969330 C.3        1 MOL1         0.1018
      13    H6      19.191141   13.476394   20.613763 H          1 MOL1         0.0783
      14    C5      18.640450   15.408404   19.782173 C.3        1 MOL1         0.1043
      15    H7      18.702783   16.455782   20.102967 H          1 MOL1         0.0783
      16    O4      17.271043   15.101649   19.423495 O.3        1 MOL1        -0.3740
      17    C6      19.539992   15.277073   18.526287 C.3        1 MOL1         0.0138
      18    H8      20.417723   15.922270   18.660671 H          1 MOL1         0.0794
      19    H9      18.988921   15.664030   17.658832 H          1 MOL1         0.0794
      20    O5      19.969847   13.932726   18.278749 O.3        1 MOL1        -0.5486
      21    H10     20.614106   13.697091   18.982536 H          1 MOL1         0.3769
      22    C7      14.712136   20.259569   21.741690 C.3        1 MOL1         0.2972
      23    H11     14.072051   21.124659   21.958174 H          1 MOL1         0.0751
      24    O6      16.064913   20.654425   21.435675 O.3        1 MOL1        -0.3740
      25    C8      14.744504   19.308133   22.961277 C.3        1 MOL1         0.1003
      26    H12     13.724268   18.936325   23.122839 H          1 MOL1         0.0783
      27    O7      15.194739   19.998307   24.138551 O.3        1 MOL1        -0.5519
      28    H13     15.592270   20.854685   23.842334 H          1 MOL1         0.3769
      29    C9      15.659903   18.100026   22.671101 C.3        1 MOL1         0.1053
      30    H14     16.681721   18.482149   22.596659 H          1 MOL1         0.0783
      31    O8      15.585254   17.165913   23.751881 O.3        1 MOL1        -0.5519
      32    H15     15.606104   17.721145   24.563666 H          1 MOL1         0.3769
      33    C10     15.309030   17.405859   21.330688 C.3        1 MOL1         0.1018
      34    H16     14.440479   16.752936   21.489616 H          1 MOL1         0.0783
      35    C11     15.030816   18.408225   20.170085 C.3        1 MOL1         0.1043
      36    H17     15.998001   18.803288   19.834246 H          1 MOL1         0.0783
      37    O9      14.204532   19.515637   20.615581 O.3        1 MOL1        -0.3740
      38    C12     14.357477   17.758564   18.937826 C.3        1 MOL1         0.0138
      39    H18     15.091601   17.110838   18.439810 H          1 MOL1         0.0794
      40    H19     14.087685   18.551335   18.227130 H          1 MOL1         0.0794
      41    O10     13.199247   16.994848   19.295712 O.3        1 MOL1        -0.5486
      42    H20     12.777817   16.684664   18.464455 H          1 MOL1         0.3769
      43    C13     18.425740   23.990246   20.714662 C.3        1 MOL1         0.2972
      44    H21     18.824044   24.975737   20.441074 H          1 MOL1         0.0751
      45    O11     19.492260   23.033331   20.916265 O.3        1 MOL1        -0.3740
      46    C14     17.526707   24.080698   21.981304 C.3        1 MOL1         0.1003
      47    H22     16.676052   24.724377   21.721709 H          1 MOL1         0.0783
      48    O12     18.209522   24.659947   23.102105 O.3        1 MOL1        -0.5519
      49    H23     18.913609   24.016888   23.368217 H          1 MOL1         0.3769
      50    C15     16.967356   22.684900   22.346411 C.3        1 MOL1         0.1053
      51    H24     17.808420   22.040367   22.633253 H          1 MOL1         0.0783
      52    O13     16.051815   22.799371   23.440538 O.3        1 MOL1        -0.5519
      53    H25     16.478480   23.423971   24.069181 H          1 MOL1         0.3769
      54    C16     16.256140   22.046009   21.129178 C.3        1 MOL1         0.1018
      55    H26     15.303965   22.568920   20.970406 H          1 MOL1         0.0783
      56    C17     17.101675   22.128130   19.826962 C.3        1 MOL1         0.1043
      57    H27     17.961071   21.456470   19.925512 H          1 MOL1         0.0783
      58    O14     17.585596   23.484101   19.649868 O.3        1 MOL1        -0.3740
      59    C18     16.347666   21.679548   18.547385 C.3        1 MOL1         0.0138
      60    H28     16.483689   20.596949   18.428024 H          1 MOL1         0.0794
      61    H29     16.818897   22.156929   17.677864 H          1 MOL1         0.0794
      62    O15     14.946937   21.979858   18.576221 O.3        1 MOL1        -0.5486
      63    H30     14.523247   21.327910   19.179868 H          1 MOL1         0.3769
      64    C19     23.487950   22.584698   21.978798 C.3        1 MOL1         0.2972
      65    H31     24.518790   22.728109   22.327015 H          1 MOL1         0.0751
      66    O16     23.329815   21.322308   21.296493 O.3        1 MOL1        -0.3740
      67    C20     22.497005   22.657448   23.171308 C.3        1 MOL1         0.1003
      68    H32     22.606347   23.652127   23.623018 H          1 MOL1         0.0783
      69    O17     22.764298   21.655168   24.165650 O.3        1 MOL1        -0.5519
      70    H33     23.706380   21.380137   24.056993 H          1 MOL1         0.3769
      71    C21     21.043125   22.506855   22.678494 C.3        1 MOL1         0.1053
      72    H34     20.943919   21.493940   22.275324 H          1 MOL1         0.0783
      73    O18     20.161529   22.676265   23.791866 O.3        1 MOL1        -0.5519
      74    H35     20.599106   22.183703   24.523132 H          1 MOL1         0.3769
      75    C22     20.706601   23.504732   21.542215 C.3        1 MOL1         0.1018
      76    H36     20.589060   24.507967   21.972117 H          1 MOL1         0.0783
      77    C23     21.811542   23.527487   20.447820 C.3        1 MOL1         0.1043
      78    H37     21.753207   22.586498   19.885024 H          1 MOL1         0.0783
      79    O19     23.125815   23.634443   21.055158 O.3        1 MOL1        -0.3740
      80    C24     21.645248   24.681947   19.430766 C.3        1 MOL1         0.0138
      81    H38     20.775071   24.464202   18.796823 H          1 MOL1         0.0794
      82    H39     22.527805   24.703067   18.777441 H          1 MOL1         0.0794
      83    O20     21.470782   25.950418   20.074709 O.3        1 MOL1        -0.5486
      84    H40     21.453479   26.639825   19.375266 H          1 MOL1         0.3769
      85    C25     25.152811   17.626497   21.050293 C.3        1 MOL1         0.2972
      86    H41     25.794406   16.751968   20.881358 H          1 MOL1         0.0751
      87    O21     23.786414   17.244777   21.314321 O.3        1 MOL1        -0.3740
      88    C26     25.668760   18.482489   22.233059 C.3        1 MOL1         0.1003
      89    H42     26.660983   18.857976   21.950311 H          1 MOL1         0.0783
      90    O22     25.791478   17.709787   23.436803 O.3        1 MOL1        -0.5519
      91    H43     24.901451   17.319308   23.629811 H          1 MOL1         0.3769
      92    C27     24.745933   19.704566   22.463361 C.3        1 MOL1         0.1053
      93    H44     23.773112   19.334732   22.816499 H          1 MOL1         0.0783
      94    O23     25.343834   20.536911   23.463715 O.3        1 MOL1        -0.5519
      95    H45     25.716892   19.908969   24.124253 H          1 MOL1         0.3769
      96    C28     24.513528   20.507516   21.149900 C.3        1 MOL1         0.1018
      97    H46     25.398305   21.125209   20.951077 H          1 MOL1         0.0783
      98    C29     24.244916   19.596424   19.916890 C.3        1 MOL1         0.1043
      99    H47     23.225054   19.203945   19.995465 H          1 MOL1         0.0783
     100    O24     25.167003   18.480397   19.887753 O.3        1 MOL1        -0.3740
     101    C30     24.326023   20.345713   18.563996 C.3        1 MOL1         0.0138
     102    H48     23.465624   21.024206   18.487375 H          1 MOL1         0.0794
     103    H49     24.231366   19.610159   17.754213 H          1 MOL1         0.0794
     104    O25     25.542927   21.087145   18.412140 O.3        1 MOL1        -0.5486
     105    H50     25.473289   21.890249   18.971451 H          1 MOL1         0.3769
     106    C31     21.253488   14.078002   21.965132 C.3        1 MOL1         0.2972
     107    H51     20.766074   13.117166   22.174917 H          1 MOL1         0.0751
     108    O26     20.319260   15.046924   21.451834 O.3        1 MOL1        -0.3740
     109    C32     21.881622   14.645953   23.259378 C.3        1 MOL1         0.1003
     110    H52     22.633780   13.922463   23.600196 H          1 MOL1         0.0783
     111    O27     20.881257   14.811941   24.281688 O.3        1 MOL1        -0.5519
     112    H53     20.111530   14.251018   24.016509 H          1 MOL1         0.3769
     113    C33     22.593351   15.989910   22.972894 C.3        1 MOL1         0.1053
     114    H54     21.828725   16.731911   22.721291 H          1 MOL1         0.0783
     115    O28     23.290645   16.409309   24.148746 O.3        1 MOL1        -0.5519
     116    H55     22.697026   16.164537   24.892569 H          1 MOL1         0.3769
     117    C34     23.566160   15.894345   21.768952 C.3        1 MOL1         0.1018
     118    H56     24.493989   15.413220   22.106081 H          1 MOL1         0.0783
     119    C35     22.966987   15.120289   20.558853 C.3        1 MOL1         0.1043
     120    H57     22.228432   15.773209   20.077393 H          1 MOL1         0.0783
     121    O29     22.304870   13.906318   20.993428 O.3        1 MOL1        -0.3740
     122    C36     24.015118   14.750024   19.482292 C.3        1 MOL1         0.0138
     123    H58     24.329270   15.669957   18.970719 H          1 MOL1         0.0794
     124    H59     23.535293   14.107582   18.731769 H          1 MOL1         0.0794
     125    O30     25.157772   14.092692   20.044272 O.3        1 MOL1        -0.5486
     126    H60     25.739409   13.819041   19.301584 H          1 MOL1         0.3769
     127    N1      19.756577   17.429748   24.991260 N.4        1 MOL1        -0.5891
     128    H1      19.087830   17.760653   25.692517 H          1 MOL1         0.3726
     129    H2      20.656201   17.881198   25.179106 H          1 MOL1         0.3726
     130    H3      19.904165   16.420121   25.141522 H          1 MOL1         0.3726
     131    C1      19.287863   17.688093   23.576219 C.3        1 MOL1         0.0314
     132    H4      18.263143   17.320046   23.480026 H          1 MOL1         0.0999
     133    H5      19.921028   17.096526   22.912109 H          1 MOL1         0.0999
     134    C2      19.355314   19.167203   23.165444 C.3        1 MOL1        -0.1308
     135    H6      18.539518   19.718322   23.652912 H          1 MOL1         0.1025
     136    H7      20.292376   19.609460   23.529328 H          1 MOL1         0.1025
     137    C3      19.269813   19.348668   21.632960 C.3        1 MOL1        -0.1243
     138    H8      19.163857   20.417118   21.417536 H          1 MOL1         0.1025
     139    H9      18.370753   18.862405   21.232327 H          1 MOL1         0.1025
     140    C4      20.521059   18.814971   20.902582 C.3        1 MOL1        -0.2258
     141    H10     21.432844   19.246679   21.333535 H          1 MOL1         0.1036
     142    H11     20.490929   19.079551   19.838061 H          1 MOL1         0.1036
     143    H12     20.597636   17.724030   20.973167 H          1 MOL1         0.1036
@<TRIPOS>BOND
    1     1     2    1
    2     1     3    1
    3     1     4    1
    4     4     5    1
    5     4     6    1
    6     6     7    1
    7     4     8    1
    8     8     9    1
    9     8    10    1
   10    10    11    1
   11     8    12    1
   12    12    13    1
   13    12    14    1
   14    14    15    1
   15     1    16    1
   16    14    16    1
   17    14    17    1
   18    17    18    1
   19    17    19    1
   20    17    20    1
   21    20    21    1
   22    22    23    1
   23    22    24    1
   24    22    25    1
   25    25    26    1
   26    25    27    1
   27    27    28    1
   28    25    29    1
   29    29    30    1
   30    29    31    1
   31    31    32    1
   32     3    33    1
   33    29    33    1
   34    33    34    1
   35    33    35    1
   36    35    36    1
   37    22    37    1
   38    35    37    1
   39    35    38    1
   40    38    39    1
   41    38    40    1
   42    38    41    1
   43    41    42    1
   44    43    44    1
   45    43    45    1
   46    43    46    1
   47    46    47    1
   48    46    48    1
   49    48    49    1
   50    46    50    1
   51    50    51    1
   52    50    52    1
   53    52    53    1
   54    24    54    1
   55    50    54    1
   56    54    55    1
   57    54    56    1
   58    56    57    1
   59    43    58    1
   60    56    58    1
   61    56    59    1
   62    59    60    1
   63    59    61    1
   64    59    62    1
   65    62    63    1
   66    64    65    1
   67    64    66    1
   68    64    67    1
   69    67    68    1
   70    67    69    1
   71    69    70    1
   72    67    71    1
   73    71    72    1
   74    71    73    1
   75    73    74    1
   76    45    75    1
   77    71    75    1
   78    75    76    1
   79    75    77    1
   80    77    78    1
   81    64    79    1
   82    77    79    1
   83    77    80    1
   84    80    81    1
   85    80    82    1
   86    80    83    1
   87    83    84    1
   88    85    86    1
   89    85    87    1
   90    85    88    1
   91    88    89    1
   92    88    90    1
   93    90    91    1
   94    88    92    1
   95    92    93    1
   96    92    94    1
   97    94    95    1
   98    66    96    1
   99    92    96    1
  100    96    97    1
  101    96    98    1
  102    98    99    1
  103    85   100    1
  104    98   100    1
  105    98   101    1
  106   101   102    1
  107   101   103    1
  108   101   104    1
  109   104   105    1
  110   106   107    1
  111    12   108    1
  112   106   108    1
  113   106   109    1
  114   109   110    1
  115   109   111    1
  116   111   112    1
  117   109   113    1
  118   113   114    1
  119   113   115    1
  120   115   116    1
  121    87   117    1
  122   113   117    1
  123   117   118    1
  124   117   119    1
  125   119   120    1
  126   106   121    1
  127   119   121    1
  128   119   122    1
  129   122   123    1
  130   122   124    1
  131   122   125    1
  132   125   126    1
  133   127   128    1
  134   127   129    1
  135   127   130    1
  136   127   131    1
  137   131   132    1
  138   131   133    1
  139   131   134    1
  140   134   135    1
  141   134   136    1
  142   134   137    1
  143   137   138    1
  144   137   139    1
  145   137   140    1
  146   140   141    1
  147   140   142    1
  148   140   143    1
@<TRIPOS>SUBSTRUCTURE
       1 MOL1            1 RESIDUE      1      MOL     
       2 MOL1          143 RESIDUE      1      MOL     
@<SCITEGIC>MOL_PROPERTY
feprocess Rank
SciTegic.value.IntegerValue
6

@<SCITEGIC>MOL_PROPERTY
Conf_Id
SciTegic.value.IntegerValue
134

@<SCITEGIC>MOL_PROPERTY
Probability
SciTegic.value.DoubleValue
8.92

@<SCITEGIC>MOL_PROPERTY
G
SciTegic.value.DoubleValue
550.468

@<SCITEGIC>MOL_PROPERTY
E
SciTegic.value.DoubleValue
362.936

@<SCITEGIC>MOL_PROPERTY
-TS
SciTegic.value.DoubleValue
187.532

@<SCITEGIC>MOL_PROPERTY
U+W
SciTegic.value.DoubleValue
236.848

@<SCITEGIC>MOL_PROPERTY
U
SciTegic.value.DoubleValue
327.868

@<SCITEGIC>MOL_PROPERTY
W
SciTegic.value.DoubleValue
-91.020

@<SCITEGIC>MOL_PROPERTY
W(PB)
SciTegic.value.DoubleValue
-97.067

@<SCITEGIC>MOL_PROPERTY
W(SA)
SciTegic.value.DoubleValue
6.047

@<SCITEGIC>MOL_PROPERTY
Valence
SciTegic.value.DoubleValue
146.823

@<SCITEGIC>MOL_PROPERTY
Coulomb
SciTegic.value.DoubleValue
202.380

@<SCITEGIC>MOL_PROPERTY
VdW
SciTegic.value.DoubleValue
-21.335

@<SCITEGIC>MOL_PROPERTY
VdW6
SciTegic.value.DoubleValue
-173.372

@<SCITEGIC>MOL_PROPERTY
VdW12
SciTegic.value.DoubleValue
152.037

@<SCITEGIC>MOL_PROPERTY
Bond
SciTegic.value.DoubleValue
4.843

@<SCITEGIC>MOL_PROPERTY
Angle
SciTegic.value.DoubleValue
12.100

@<SCITEGIC>MOL_PROPERTY
Pdih
SciTegic.value.DoubleValue
129.879

@<SCITEGIC>MOL_PROPERTY
Idih
SciTegic.value.DoubleValue
0.000

@<SCITEGIC>MOL_PROPERTY
Tether
SciTegic.value.DoubleValue
0.000

@<TRIPOS>MOLECULE
CD_guest-1_fast_vm2_rndm.mol2 : feprocess host+ligand conformer 7
         143         148           2
SMALL
USER_CHARGES
 
@<TRIPOS>ATOM
       1    C1      16.346036   15.233314   21.791677 C.3        1 MOL1         0.2972
       2    H1      15.307100   15.111589   22.123549 H          1 MOL1         0.0751
       3    O1      16.573257   16.541457   21.223980 O.3        1 MOL1        -0.3740
       4    C2      17.322467   15.009703   22.975263 C.3        1 MOL1         0.1003
       5    H2      17.167156   13.983607   23.333625 H          1 MOL1         0.0783
       6    O2      17.091295   15.928006   24.056099 O.3        1 MOL1        -0.5519
       7    H3      16.167871   16.264107   23.958831 H          1 MOL1         0.3769
       8    C3      18.784573   15.141750   22.504198 C.3        1 MOL1         0.1053
       9    H4      18.939968   16.180416   22.196147 H          1 MOL1         0.0783
      10    O3      19.642694   14.829730   23.604543 O.3        1 MOL1        -0.5519
      11    H5      19.204772   15.253569   24.377196 H          1 MOL1         0.3769
      12    C4      19.093114   14.254004   21.274013 C.3        1 MOL1         0.1018
      13    H6      19.219895   13.213409   21.599913 H          1 MOL1         0.0783
      14    C5      17.981977   14.345772   20.188125 C.3        1 MOL1         0.1043
      15    H7      18.072902   15.321053   19.692131 H          1 MOL1         0.0783
      16    O4      16.663492   14.247259   20.786097 O.3        1 MOL1        -0.3740
      17    C6      18.108023   13.262457   19.090509 C.3        1 MOL1         0.0138
      18    H8      18.989145   13.491265   18.475870 H          1 MOL1         0.0794
      19    H9      17.228423   13.322982   18.435647 H          1 MOL1         0.0794
      20    O5      18.229902   11.945152   19.641576 O.3        1 MOL1        -0.5486
      21    H10     18.229174   11.307999   18.893950 H          1 MOL1         0.3769
      22    C7      14.727615   20.271800   21.206952 C.3        1 MOL1         0.2972
      23    H11     14.028308   21.110609   21.099306 H          1 MOL1         0.0751
      24    O6      16.054788   20.718704   21.545823 O.3        1 MOL1        -0.3740
      25    C8      14.247089   19.334409   22.337801 C.3        1 MOL1         0.1003
      26    H12     13.250588   18.967642   22.058774 H          1 MOL1         0.0783
      27    O7      14.157294   20.050084   23.580571 O.3        1 MOL1        -0.5519
      28    H13     14.871691   20.735332   23.574023 H          1 MOL1         0.3769
      29    C9      15.181563   18.110217   22.486751 C.3        1 MOL1         0.1053
      30    H14     16.149810   18.462113   22.869165 H          1 MOL1         0.0783
      31    O8      14.581719   17.209597   23.424418 O.3        1 MOL1        -0.5519
      32    H15     14.223134   17.790836   24.134031 H          1 MOL1         0.3769
      33    C10     15.424424   17.409779   21.119592 C.3        1 MOL1         0.1018
      34    H16     14.524500   16.847136   20.840254 H          1 MOL1         0.0783
      35    C11     15.759012   18.424348   19.990430 C.3        1 MOL1         0.1043
      36    H17     16.756374   18.834467   20.188464 H          1 MOL1         0.0783
      37    O9      14.798842   19.509454   19.984747 O.3        1 MOL1        -0.3740
      38    C12     15.805284   17.791084   18.577760 C.3        1 MOL1         0.0138
      39    H18     16.713423   17.178490   18.498664 H          1 MOL1         0.0794
      40    H19     15.892482   18.596534   17.836645 H          1 MOL1         0.0794
      41    O10     14.654660   16.986491   18.293890 O.3        1 MOL1        -0.5486
      42    H20     14.738416   16.158043   18.813150 H          1 MOL1         0.3769
      43    C13     18.447044   24.128246   21.359367 C.3        1 MOL1         0.2972
      44    H21     18.806102   25.157752   21.234950 H          1 MOL1         0.0751
      45    O11     19.528067   23.217082   21.638809 O.3        1 MOL1        -0.3740
      46    C14     17.464858   24.061214   22.555057 C.3        1 MOL1         0.1003
      47    H22     16.636435   24.750348   22.345397 H          1 MOL1         0.0783
      48    O12     18.127558   24.463757   23.764783 O.3        1 MOL1        -0.5519
      49    H23     19.071264   24.179091   23.683323 H          1 MOL1         0.3769
      50    C15     16.879492   22.637937   22.709744 C.3        1 MOL1         0.1053
      51    H24     17.691497   21.969079   23.022270 H          1 MOL1         0.0783
      52    O13     15.851211   22.643524   23.705489 O.3        1 MOL1        -0.5519
      53    H25     16.227896   23.149551   24.459624 H          1 MOL1         0.3769
      54    C16     16.308840   22.123466   21.366444 C.3        1 MOL1         0.1018
      55    H26     15.392978   22.687140   21.144986 H          1 MOL1         0.0783
      56    C17     17.318751   22.298657   20.198853 C.3        1 MOL1         0.1043
      57    H27     18.178157   21.644676   20.389250 H          1 MOL1         0.0783
      58    O14     17.767604   23.676483   20.167424 O.3        1 MOL1        -0.3740
      59    C18     16.772004   21.921015   18.798365 C.3        1 MOL1         0.0138
      60    H28     16.899385   20.840368   18.654996 H          1 MOL1         0.0794
      61    H29     17.386293   22.418950   18.036557 H          1 MOL1         0.0794
      62    O15     15.394622   22.265882   18.618056 O.3        1 MOL1        -0.5486
      63    H30     14.868376   21.490178   18.916759 H          1 MOL1         0.3769
      64    C19     23.618986   22.741033   21.007414 C.3        1 MOL1         0.2972
      65    H31     24.678629   22.873051   20.753693 H          1 MOL1         0.0751
      66    O16     23.304896   21.355334   21.253761 O.3        1 MOL1        -0.3740
      67    C20     23.221057   23.603177   22.238749 C.3        1 MOL1         0.1003
      68    H32     23.382640   24.652748   21.960375 H          1 MOL1         0.0783
      69    O17     24.020281   23.305537   23.393072 O.3        1 MOL1        -0.5519
      70    H33     23.826036   22.367684   23.644544 H          1 MOL1         0.3769
      71    C21     21.717920   23.424775   22.561223 C.3        1 MOL1         0.1053
      72    H34     21.556851   22.387659   22.884935 H          1 MOL1         0.0783
      73    O18     21.335504   24.323130   23.608682 O.3        1 MOL1        -0.5519
      74    H35     22.047756   24.253193   24.282446 H          1 MOL1         0.3769
      75    C22     20.848157   23.686438   21.307767 C.3        1 MOL1         0.1018
      76    H36     20.864671   24.765347   21.104969 H          1 MOL1         0.0783
      77    C23     21.366237   22.915114   20.059588 C.3        1 MOL1         0.1043
      78    H37     21.203345   21.842804   20.225685 H          1 MOL1         0.0783
      79    O19     22.786700   23.167345   19.905639 O.3        1 MOL1        -0.3740
      80    C24     20.661323   23.265879   18.724714 C.3        1 MOL1         0.0138
      81    H38     19.766998   22.637958   18.628050 H          1 MOL1         0.0794
      82    H39     21.329670   22.994692   17.896587 H          1 MOL1         0.0794
      83    O20     20.290967   24.645039   18.624519 O.3        1 MOL1        -0.5486
      84    H40     19.381502   24.718520   18.991928 H          1 MOL1         0.3769
      85    C25     24.749526   17.630030   22.150551 C.3        1 MOL1         0.2972
      86    H41     25.315654   16.741271   22.457441 H          1 MOL1         0.0751
      87    O21     23.555403   17.275702   21.423955 O.3        1 MOL1        -0.3740
      88    C26     24.351879   18.461780   23.395227 C.3        1 MOL1         0.1003
      89    H42     25.282361   18.754849   23.898873 H          1 MOL1         0.0783
      90    O22     23.537293   17.695214   24.302735 O.3        1 MOL1        -0.5519
      91    H43     23.681684   16.743016   24.075174 H          1 MOL1         0.3769
      92    C27     23.600046   19.744489   22.978027 C.3        1 MOL1         0.1053
      93    H44     22.624094   19.438325   22.584421 H          1 MOL1         0.0783
      94    O23     23.422125   20.574385   24.130240 O.3        1 MOL1        -0.5519
      95    H45     23.245820   19.949103   24.865621 H          1 MOL1         0.3769
      96    C28     24.322620   20.533673   21.858101 C.3        1 MOL1         0.1018
      97    H46     25.130271   21.128304   22.304657 H          1 MOL1         0.0783
      98    C29     24.888808   19.621074   20.732777 C.3        1 MOL1         0.1043
      99    H47     24.045174   19.279014   20.119566 H          1 MOL1         0.0783
     100    O24     25.558091   18.466457   21.298237 O.3        1 MOL1        -0.3740
     101    C30     25.873422   20.345519   19.783859 C.3        1 MOL1         0.0138
     102    H48     25.303788   21.049894   19.162780 H          1 MOL1         0.0794
     103    H49     26.319017   19.602850   19.108489 H          1 MOL1         0.0794
     104    O25     26.898192   21.047341   20.498475 O.3        1 MOL1        -0.5486
     105    H50     27.528121   21.409696   19.837597 H          1 MOL1         0.3769
     106    C31     21.384776   13.893269   20.407910 C.3        1 MOL1         0.2972
     107    H51     21.019812   12.924153   20.044137 H          1 MOL1         0.0751
     108    O26     20.291406   14.796890   20.682443 O.3        1 MOL1        -0.3740
     109    C32     22.287046   13.723017   21.662278 C.3        1 MOL1         0.1003
     110    H52     23.169633   13.153919   21.341989 H          1 MOL1         0.0783
     111    O27     21.637178   12.995194   22.713730 O.3        1 MOL1        -0.5519
     112    H53     20.909304   13.575310   23.050655 H          1 MOL1         0.3769
     113    C33     22.775706   15.102397   22.168110 C.3        1 MOL1         0.1053
     114    H54     21.902642   15.676284   22.505715 H          1 MOL1         0.0783
     115    O28     23.680914   14.910705   23.261830 O.3        1 MOL1        -0.5519
     116    H55     23.287037   14.182146   23.793276 H          1 MOL1         0.3769
     117    C34     23.459437   15.896281   21.022676 C.3        1 MOL1         0.1018
     118    H56     24.449347   15.462831   20.830934 H          1 MOL1         0.0783
     119    C35     22.634912   15.876250   19.705298 C.3        1 MOL1         0.1043
     120    H57     21.749106   16.507191   19.848176 H          1 MOL1         0.0783
     121    O29     22.208424   14.523091   19.401887 O.3        1 MOL1        -0.3740
     122    C36     23.396423   16.449710   18.484080 C.3        1 MOL1         0.0138
     123    H58     23.429099   17.543367   18.575658 H          1 MOL1         0.0794
     124    H59     22.822378   16.219352   17.576760 H          1 MOL1         0.0794
     125    O30     24.729176   15.936897   18.366240 O.3        1 MOL1        -0.5486
     126    H60     25.273249   16.368328   19.060190 H          1 MOL1         0.3769
     127    N1      20.979273   18.494390   25.547827 N.4        1 MOL1        -0.5891
     128    H1      21.865805   18.094288   25.197958 H          1 MOL1         0.3726
     129    H2      20.376406   17.707384   25.803883 H          1 MOL1         0.3726
     130    H3      21.195942   19.002859   26.410054 H          1 MOL1         0.3726
     131    C1      20.332301   19.385721   24.507033 C.3        1 MOL1         0.0314
     132    H4      21.025845   20.201854   24.288296 H          1 MOL1         0.0999
     133    H5      19.420190   19.813777   24.931583 H          1 MOL1         0.0999
     134    C2      20.002955   18.626129   23.211944 C.3        1 MOL1        -0.1308
     135    H6      20.865395   18.011734   22.919322 H          1 MOL1         0.1025
     136    H7      19.170190   17.940550   23.408989 H          1 MOL1         0.1025
     137    C3      19.631147   19.580550   22.057462 C.3        1 MOL1        -0.1243
     138    H8      20.355401   20.405260   22.007047 H          1 MOL1         0.1025
     139    H9      18.649616   20.029089   22.257536 H          1 MOL1         0.1025
     140    C4      19.605582   18.848351   20.699112 C.3        1 MOL1        -0.2258
     141    H10     19.301246   19.527783   19.893600 H          1 MOL1         0.1036
     142    H11     18.905330   18.003973   20.715976 H          1 MOL1         0.1036
     143    H12     20.600903   18.458910   20.450493 H          1 MOL1         0.1036
@<TRIPOS>BOND
    1     1     2    1
    2     1     3    1
    3     1     4    1
    4     4     5    1
    5     4     6    1
    6     6     7    1
    7     4     8    1
    8     8     9    1
    9     8    10    1
   10    10    11    1
   11     8    12    1
   12    12    13    1
   13    12    14    1
   14    14    15    1
   15     1    16    1
   16    14    16    1
   17    14    17    1
   18    17    18    1
   19    17    19    1
   20    17    20    1
   21    20    21    1
   22    22    23    1
   23    22    24    1
   24    22    25    1
   25    25    26    1
   26    25    27    1
   27    27    28    1
   28    25    29    1
   29    29    30    1
   30    29    31    1
   31    31    32    1
   32     3    33    1
   33    29    33    1
   34    33    34    1
   35    33    35    1
   36    35    36    1
   37    22    37    1
   38    35    37    1
   39    35    38    1
   40    38    39    1
   41    38    40    1
   42    38    41    1
   43    41    42    1
   44    43    44    1
   45    43    45    1
   46    43    46    1
   47    46    47    1
   48    46    48    1
   49    48    49    1
   50    46    50    1
   51    50    51    1
   52    50    52    1
   53    52    53    1
   54    24    54    1
   55    50    54    1
   56    54    55    1
   57    54    56    1
   58    56    57    1
   59    43    58    1
   60    56    58    1
   61    56    59    1
   62    59    60    1
   63    59    61    1
   64    59    62    1
   65    62    63    1
   66    64    65    1
   67    64    66    1
   68    64    67    1
   69    67    68    1
   70    67    69    1
   71    69    70    1
   72    67    71    1
   73    71    72    1
   74    71    73    1
   75    73    74    1
   76    45    75    1
   77    71    75    1
   78    75    76    1
   79    75    77    1
   80    77    78    1
   81    64    79    1
   82    77    79    1
   83    77    80    1
   84    80    81    1
   85    80    82    1
   86    80    83    1
   87    83    84    1
   88    85    86    1
   89    85    87    1
   90    85    88    1
   91    88    89    1
   92    88    90    1
   93    90    91    1
   94    88    92    1
   95    92    93    1
   96    92    94    1
   97    94    95    1
   98    66    96    1
   99    92    96    1
  100    96    97    1
  101    96    98    1
  102    98    99    1
  103    85   100    1
  104    98   100    1
  105    98   101    1
  106   101   102    1
  107   101   103    1
  108   101   104    1
  109   104   105    1
  110   106   107    1
  111    12   108    1
  112   106   108    1
  113   106   109    1
  114   109   110    1
  115   109   111    1
  116   111   112    1
  117   109   113    1
  118   113   114    1
  119   113   115    1
  120   115   116    1
  121    87   117    1
  122   113   117    1
  123   117   118    1
  124   117   119    1
  125   119   120    1
  126   106   121    1
  127   119   121    1
  128   119   122    1
  129   122   123    1
  130   122   124    1
  131   122   125    1
  132   125   126    1
  133   127   128    1
  134   127   129    1
  135   127   130    1
  136   127   131    1
  137   131   132    1
  138   131   133    1
  139   131   134    1
  140   134   135    1
  141   134   136    1
  142   134   137    1
  143   137   138    1
  144   137   139    1
  145   137   140    1
  146   140   141    1
  147   140   142    1
  148   140   143    1
@<TRIPOS>SUBSTRUCTURE
       1 MOL1            1 RESIDUE      1      MOL     
       2 MOL1          143 RESIDUE      1      MOL     
@<SCITEGIC>MOL_PROPERTY
feprocess Rank
SciTegic.value.IntegerValue
7

@<SCITEGIC>MOL_PROPERTY
Conf_Id
SciTegic.value.IntegerValue
463

@<SCITEGIC>MOL_PROPERTY
Probability
SciTegic.value.DoubleValue
2.73

@<SCITEGIC>MOL_PROPERTY
G
SciTegic.value.DoubleValue
551.175

@<SCITEGIC>MOL_PROPERTY
E
SciTegic.value.DoubleValue
364.502

@<SCITEGIC>MOL_PROPERTY
-TS
SciTegic.value.DoubleValue
186.673

@<SCITEGIC>MOL_PROPERTY
U+W
SciTegic.value.DoubleValue
238.414

@<SCITEGIC>MOL_PROPERTY
U
SciTegic.value.DoubleValue
333.242

@<SCITEGIC>MOL_PROPERTY
W
SciTegic.value.DoubleValue
-94.828

@<SCITEGIC>MOL_PROPERTY
W(PB)
SciTegic.value.DoubleValue
-100.898

@<SCITEGIC>MOL_PROPERTY
W(SA)
SciTegic.value.DoubleValue
6.069

@<SCITEGIC>MOL_PROPERTY
Valence
SciTegic.value.DoubleValue
147.388

@<SCITEGIC>MOL_PROPERTY
Coulomb
SciTegic.value.DoubleValue
206.328

@<SCITEGIC>MOL_PROPERTY
VdW
SciTegic.value.DoubleValue
-20.474

@<SCITEGIC>MOL_PROPERTY
VdW6
SciTegic.value.DoubleValue
-169.620

@<SCITEGIC>MOL_PROPERTY
VdW12
SciTegic.value.DoubleValue
149.145

@<SCITEGIC>MOL_PROPERTY
Bond
SciTegic.value.DoubleValue
4.620

@<SCITEGIC>MOL_PROPERTY
Angle
SciTegic.value.DoubleValue
12.289

@<SCITEGIC>MOL_PROPERTY
Pdih
SciTegic.value.DoubleValue
130.479

@<SCITEGIC>MOL_PROPERTY
Idih
SciTegic.value.DoubleValue
0.000

@<SCITEGIC>MOL_PROPERTY
Tether
SciTegic.value.DoubleValue
0.000

@<TRIPOS>MOLECULE
CD_guest-1_fast_vm2_rndm.mol2 : feprocess host+ligand conformer 8
         143         148           2
SMALL
USER_CHARGES
 
@<TRIPOS>ATOM
       1    C1      16.195090   15.343555   21.666618 C.3        1 MOL1         0.2972
       2    H1      15.144118   15.173782   21.933564 H          1 MOL1         0.0751
       3    O1      16.368896   16.593010   20.963801 O.3        1 MOL1        -0.3740
       4    C2      17.090693   15.319492   22.935942 C.3        1 MOL1         0.1003
       5    H2      16.986814   14.322853   23.384678 H          1 MOL1         0.0783
       6    O2      16.708346   16.310328   23.902669 O.3        1 MOL1        -0.5519
       7    H3      15.784800   16.587661   23.690803 H          1 MOL1         0.3769
       8    C3      18.571479   15.524693   22.557212 C.3        1 MOL1         0.1053
       9    H4      18.659696   16.537581   22.149438 H          1 MOL1         0.0783
      10    O3      19.372945   15.402375   23.736059 O.3        1 MOL1        -0.5519
      11    H5      18.846631   15.861298   24.430129 H          1 MOL1         0.3769
      12    C4      19.029106   14.518341   21.471961 C.3        1 MOL1         0.1018
      13    H6      19.138115   13.528648   21.934372 H          1 MOL1         0.0783
      14    C5      18.018020   14.434267   20.292647 C.3        1 MOL1         0.1043
      15    H7      18.088970   15.365667   19.715539 H          1 MOL1         0.0783
      16    O4      16.664004   14.289730   20.797536 O.3        1 MOL1        -0.3740
      17    C6      18.302866   13.267330   19.316854 C.3        1 MOL1         0.0138
      18    H8      19.210788   13.504592   18.746007 H          1 MOL1         0.0794
      19    H9      17.474404   13.201388   18.598875 H          1 MOL1         0.0794
      20    O5      18.471299   12.018587   19.999781 O.3        1 MOL1        -0.5486
      21    H10     18.561225   11.316326   19.318961 H          1 MOL1         0.3769
      22    C7      14.634573   20.281623   20.527147 C.3        1 MOL1         0.2972
      23    H11     14.040225   21.179545   20.314581 H          1 MOL1         0.0751
      24    O6      16.013459   20.613533   20.804167 O.3        1 MOL1        -0.3740
      25    C8      14.030614   19.472639   21.703642 C.3        1 MOL1         0.1003
      26    H12     13.043134   19.122868   21.374855 H          1 MOL1         0.0783
      27    O7      13.864774   20.269302   22.885638 O.3        1 MOL1        -0.5519
      28    H13     14.773731   20.508252   23.198037 H          1 MOL1         0.3769
      29    C9      14.896488   18.227293   22.008683 C.3        1 MOL1         0.1053
      30    H14     15.858478   18.573599   22.411372 H          1 MOL1         0.0783
      31    O8      14.214334   17.432510   22.985567 O.3        1 MOL1        -0.5519
      32    H15     13.823488   18.082253   23.613725 H          1 MOL1         0.3769
      33    C10     15.183518   17.385409   20.732380 C.3        1 MOL1         0.1018
      34    H16     14.314008   16.749553   20.524275 H          1 MOL1         0.0783
      35    C11     15.493736   18.247135   19.472332 C.3        1 MOL1         0.1043
      36    H17     16.526045   18.605382   19.549816 H          1 MOL1         0.0783
      37    O9      14.613998   19.395755   19.389238 O.3        1 MOL1        -0.3740
      38    C12     15.404090   17.454304   18.145240 C.3        1 MOL1         0.0138
      39    H18     16.226099   16.726227   18.115524 H          1 MOL1         0.0794
      40    H19     15.560715   18.153724   17.313346 H          1 MOL1         0.0794
      41    O10     14.150095   16.778727   17.986107 O.3        1 MOL1        -0.5486
      42    H20     14.161243   15.987466   18.565917 H          1 MOL1         0.3769
      43    C13     18.574623   23.609817   22.058855 C.3        1 MOL1         0.2972
      44    H21     19.025660   24.526566   22.458773 H          1 MOL1         0.0751
      45    O11     19.547695   22.791973   21.378247 O.3        1 MOL1        -0.3740
      46    C14     17.951683   22.779484   23.208014 C.3        1 MOL1         0.1003
      47    H22     17.200608   23.413231   23.697347 H          1 MOL1         0.0783
      48    O12     18.949874   22.390729   24.169394 O.3        1 MOL1        -0.5519
      49    H23     19.693978   23.034447   24.086462 H          1 MOL1         0.3769
      50    C15     17.243017   21.523224   22.654024 C.3        1 MOL1         0.1053
      51    H24     18.014847   20.860475   22.251009 H          1 MOL1         0.0783
      52    O13     16.556980   20.870716   23.725829 O.3        1 MOL1        -0.5519
      53    H25     17.200796   20.874353   24.469462 H          1 MOL1         0.3769
      54    C16     16.268020   21.854316   21.496042 C.3        1 MOL1         0.1018
      55    H26     15.352807   22.292885   21.915026 H          1 MOL1         0.0783
      56    C17     16.893862   22.824966   20.455376 C.3        1 MOL1         0.1043
      57    H27     17.652222   22.271047   19.887253 H          1 MOL1         0.0783
      58    O14     17.528672   23.943375   21.122787 O.3        1 MOL1        -0.3740
      59    C18     15.870781   23.378461   19.434656 C.3        1 MOL1         0.0138
      60    H28     15.577739   22.563568   18.758922 H          1 MOL1         0.0794
      61    H29     16.364929   24.146268   18.824343 H          1 MOL1         0.0794
      62    O15     14.708056   23.920911   20.073165 O.3        1 MOL1        -0.5486
      63    H30     14.145580   24.323620   19.375871 H          1 MOL1         0.3769
      64    C19     23.670146   22.750303   20.807370 C.3        1 MOL1         0.2972
      65    H31     24.713855   22.963631   20.542825 H          1 MOL1         0.0751
      66    O16     23.473880   21.353788   21.111545 O.3        1 MOL1        -0.3740
      67    C20     23.196759   23.617379   22.005271 C.3        1 MOL1         0.1003
      68    H32     23.222978   24.663437   21.672855 H          1 MOL1         0.0783
      69    O17     24.053835   23.482255   23.147663 O.3        1 MOL1        -0.5519
      70    H33     24.002093   22.538268   23.440505 H          1 MOL1         0.3769
      71    C21     21.730274   23.273678   22.367694 C.3        1 MOL1         0.1053
      72    H34     21.693657   22.228458   22.701898 H          1 MOL1         0.0783
      73    O18     21.295624   24.132661   23.427944 O.3        1 MOL1        -0.5519
      74    H35     22.074384   24.213400   24.024486 H          1 MOL1         0.3769
      75    C22     20.817555   23.419584   21.117068 C.3        1 MOL1         0.1018
      76    H36     20.694792   24.486268   20.889509 H          1 MOL1         0.0783
      77    C23     21.408370   22.701148   19.872283 C.3        1 MOL1         0.1043
      78    H37     21.342945   21.618375   20.039473 H          1 MOL1         0.0783
      79    O19     22.800122   23.071229   19.699299 O.3        1 MOL1        -0.3740
      80    C24     20.641124   22.996746   18.559160 C.3        1 MOL1         0.0138
      81    H38     19.704688   22.423436   18.566439 H          1 MOL1         0.0794
      82    H39     21.238780   22.627221   17.715321 H          1 MOL1         0.0794
      83    O20     20.350437   24.388876   18.384778 O.3        1 MOL1        -0.5486
      84    H40     19.643237   24.623922   19.023839 H          1 MOL1         0.3769
      85    C25     25.032878   17.735224   22.121662 C.3        1 MOL1         0.2972
      86    H41     25.604271   16.846016   22.417873 H          1 MOL1         0.0751
      87    O21     23.740718   17.388297   21.577737 O.3        1 MOL1        -0.3740
      88    C26     24.836194   18.671881   23.336571 C.3        1 MOL1         0.1003
      89    H42     25.830764   19.020959   23.644020 H          1 MOL1         0.0783
      90    O22     24.211187   17.998675   24.442007 O.3        1 MOL1        -0.5519
      91    H43     24.038756   17.066300   24.159569 H          1 MOL1         0.3769
      92    C27     23.999497   19.901263   22.927288 C.3        1 MOL1         0.1053
      93    H44     23.003658   19.548085   22.650789 H          1 MOL1         0.0783
      94    O23     23.892835   20.777285   24.053124 O.3        1 MOL1        -0.5519
      95    H45     24.041970   20.187712   24.827896 H          1 MOL1         0.3769
      96    C28     24.576737   20.622851   21.682893 C.3        1 MOL1         0.1018
      97    H46     25.399767   21.279326   21.994726 H          1 MOL1         0.0783
      98    C29     25.050514   19.636951   20.570836 C.3        1 MOL1         0.1043
      99    H47     24.157103   19.274693   20.045977 H          1 MOL1         0.0783
     100    O24     25.750837   18.492178   21.125657 O.3        1 MOL1        -0.3740
     101    C30     25.956923   20.303037   19.508887 C.3        1 MOL1         0.0138
     102    H48     25.346171   20.997191   18.915846 H          1 MOL1         0.0794
     103    H49     26.325461   19.526337   18.825381 H          1 MOL1         0.0794
     104    O25     27.054971   21.007109   20.102017 O.3        1 MOL1        -0.5486
     105    H50     27.624844   21.338758   19.373862 H          1 MOL1         0.3769
     106    C31     21.358295   14.057742   20.803807 C.3        1 MOL1         0.2972
     107    H51     20.977834   13.067722   20.521695 H          1 MOL1         0.0751
     108    O26     20.280040   15.010638   20.942620 O.3        1 MOL1        -0.3740
     109    C32     22.187937   13.982835   22.117650 C.3        1 MOL1         0.1003
     110    H52     23.037724   13.316865   21.918512 H          1 MOL1         0.0783
     111    O27     21.433219   13.445366   23.213524 O.3        1 MOL1        -0.5519
     112    H53     20.710132   14.093511   23.407721 H          1 MOL1         0.3769
     113    C33     22.756167   15.373475   22.488665 C.3        1 MOL1         0.1053
     114    H54     21.912384   16.031690   22.731837 H          1 MOL1         0.0783
     115    O28     23.616880   15.244693   23.624814 O.3        1 MOL1        -0.5519
     116    H55     23.153516   14.619007   24.226601 H          1 MOL1         0.3769
     117    C34     23.530588   15.991449   21.297017 C.3        1 MOL1         0.1018
     118    H56     24.479846   15.453602   21.176308 H          1 MOL1         0.0783
     119    C35     22.732712   15.906204   19.966766 C.3        1 MOL1         0.1043
     120    H57     21.877004   16.587782   20.029070 H          1 MOL1         0.0783
     121    O29     22.246028   14.553985   19.775765 O.3        1 MOL1        -0.3740
     122    C36     23.546273   16.333815   18.718889 C.3        1 MOL1         0.0138
     123    H58     23.564768   17.430654   18.675502 H          1 MOL1         0.0794
     124    H59     23.017367   15.985818   17.821643 H          1 MOL1         0.0794
     125    O30     24.888759   15.833490   18.725118 O.3        1 MOL1        -0.5486
     126    H60     25.398072   16.372495   19.369496 H          1 MOL1         0.3769
     127    N1      21.280611   19.381189   25.127247 N.4        1 MOL1        -0.5891
     128    H1      20.432406   19.725265   25.588183 H          1 MOL1         0.3726
     129    H2      21.829783   20.200148   24.836608 H          1 MOL1         0.3726
     130    H3      21.840217   18.883767   25.828190 H          1 MOL1         0.3726
     131    C1      20.967006   18.488842   23.944676 C.3        1 MOL1         0.0314
     132    H4      20.447777   17.596893   24.305532 H          1 MOL1         0.0999
     133    H5      21.918468   18.168387   23.513711 H          1 MOL1         0.0999
     134    C2      20.116840   19.189592   22.871566 C.3        1 MOL1        -0.1308
     135    H6      19.057817   19.036087   23.118835 H          1 MOL1         0.1025
     136    H7      20.297080   20.272493   22.888588 H          1 MOL1         0.1025
     137    C3      20.422350   18.659250   21.454897 C.3        1 MOL1        -0.1243
     138    H8      20.448699   17.564802   21.470051 H          1 MOL1         0.1025
     139    H9      21.420395   18.989726   21.136684 H          1 MOL1         0.1025
     140    C4      19.372044   19.129368   20.429512 C.3        1 MOL1        -0.2258
     141    H10     19.585046   18.717498   19.434903 H          1 MOL1         0.1036
     142    H11     19.355344   20.223221   20.349581 H          1 MOL1         0.1036
     143    H12     18.371255   18.795244   20.728530 H          1 MOL1         0.1036
@<TRIPOS>BOND
    1     1     2    1
    2     1     3    1
    3     1     4    1
    4     4     5    1
    5     4     6    1
    6     6     7    1
    7     4     8    1
    8     8     9    1
    9     8    10    1
   10    10    11    1
   11     8    12    1
   12    12    13    1
   13    12    14    1
   14    14    15    1
   15     1    16    1
   16    14    16    1
   17    14    17    1
   18    17    18    1
   19    17    19    1
   20    17    20    1
   21    20    21    1
   22    22    23    1
   23    22    24    1
   24    22    25    1
   25    25    26    1
   26    25    27    1
   27    27    28    1
   28    25    29    1
   29    29    30    1
   30    29    31    1
   31    31    32    1
   32     3    33    1
   33    29    33    1
   34    33    34    1
   35    33    35    1
   36    35    36    1
   37    22    37    1
   38    35    37    1
   39    35    38    1
   40    38    39    1
   41    38    40    1
   42    38    41    1
   43    41    42    1
   44    43    44    1
   45    43    45    1
   46    43    46    1
   47    46    47    1
   48    46    48    1
   49    48    49    1
   50    46    50    1
   51    50    51    1
   52    50    52    1
   53    52    53    1
   54    24    54    1
   55    50    54    1
   56    54    55    1
   57    54    56    1
   58    56    57    1
   59    43    58    1
   60    56    58    1
   61    56    59    1
   62    59    60    1
   63    59    61    1
   64    59    62    1
   65    62    63    1
   66    64    65    1
   67    64    66    1
   68    64    67    1
   69    67    68    1
   70    67    69    1
   71    69    70    1
   72    67    71    1
   73    71    72    1
   74    71    73    1
   75    73    74    1
   76    45    75    1
   77    71    75    1
   78    75    76    1
   79    75    77    1
   80    77    78    1
   81    64    79    1
   82    77    79    1
   83    77    80    1
   84    80    81    1
   85    80    82    1
   86    80    83    1
   87    83    84    1
   88    85    86    1
   89    85    87    1
   90    85    88    1
   91    88    89    1
   92    88    90    1
   93    90    91    1
   94    88    92    1
   95    92    93    1
   96    92    94    1
   97    94    95    1
   98    66    96    1
   99    92    96    1
  100    96    97    1
  101    96    98    1
  102    98    99    1
  103    85   100    1
  104    98   100    1
  105    98   101    1
  106   101   102    1
  107   101   103    1
  108   101   104    1
  109   104   105    1
  110   106   107    1
  111    12   108    1
  112   106   108    1
  113   106   109    1
  114   109   110    1
  115   109   111    1
  116   111   112    1
  117   109   113    1
  118   113   114    1
  119   113   115    1
  120   115   116    1
  121    87   117    1
  122   113   117    1
  123   117   118    1
  124   117   119    1
  125   119   120    1
  126   106   121    1
  127   119   121    1
  128   119   122    1
  129   122   123    1
  130   122   124    1
  131   122   125    1
  132   125   126    1
  133   127   128    1
  134   127   129    1
  135   127   130    1
  136   127   131    1
  137   131   132    1
  138   131   133    1
  139   131   134    1
  140   134   135    1
  141   134   136    1
  142   134   137    1
  143   137   138    1
  144   137   139    1
  145   137   140    1
  146   140   141    1
  147   140   142    1
  148   140   143    1
@<TRIPOS>SUBSTRUCTURE
       1 MOL1            1 RESIDUE      1      MOL     
       2 MOL1          143 RESIDUE      1      MOL     
@<SCITEGIC>MOL_PROPERTY
feprocess Rank
SciTegic.value.IntegerValue
8

@<SCITEGIC>MOL_PROPERTY
Conf_Id
SciTegic.value.IntegerValue
355

@<SCITEGIC>MOL_PROPERTY
Probability
SciTegic.value.DoubleValue
2.67

@<SCITEGIC>MOL_PROPERTY
G
SciTegic.value.DoubleValue
551.188

@<SCITEGIC>MOL_PROPERTY
E
SciTegic.value.DoubleValue
363.711

@<SCITEGIC>MOL_PROPERTY
-TS
SciTegic.value.DoubleValue
187.477

@<SCITEGIC>MOL_PROPERTY
U+W
SciTegic.value.DoubleValue
237.623

@<SCITEGIC>MOL_PROPERTY
U
SciTegic.value.DoubleValue
327.361

@<SCITEGIC>MOL_PROPERTY
W
SciTegic.value.DoubleValue
-89.738

@<SCITEGIC>MOL_PROPERTY
W(PB)
SciTegic.value.DoubleValue
-95.794

@<SCITEGIC>MOL_PROPERTY
W(SA)
SciTegic.value.DoubleValue
6.056

@<SCITEGIC>MOL_PROPERTY
Valence
SciTegic.value.DoubleValue
147.417

@<SCITEGIC>MOL_PROPERTY
Coulomb
SciTegic.value.DoubleValue
200.617

@<SCITEGIC>MOL_PROPERTY
VdW
SciTegic.value.DoubleValue
-20.673

@<SCITEGIC>MOL_PROPERTY
VdW6
SciTegic.value.DoubleValue
-173.595

@<SCITEGIC>MOL_PROPERTY
VdW12
SciTegic.value.DoubleValue
152.922

@<SCITEGIC>MOL_PROPERTY
Bond
SciTegic.value.DoubleValue
4.877

@<SCITEGIC>MOL_PROPERTY
Angle
SciTegic.value.DoubleValue
13.060

@<SCITEGIC>MOL_PROPERTY
Pdih
SciTegic.value.DoubleValue
129.480

@<SCITEGIC>MOL_PROPERTY
Idih
SciTegic.value.DoubleValue
0.000

@<SCITEGIC>MOL_PROPERTY
Tether
SciTegic.value.DoubleValue
0.000

