@<TRIPOS>MOLECULE
CD_guest-7_fast_vm2_rndm.mol2 : feprocess host+ligand conformer 1
         145         150           2
SMALL
USER_CHARGES
 
@<TRIPOS>ATOM
       1    C1      16.207311   15.354795   21.559009 C.3        1 MOL1         0.2972
       2    H1      15.132865   15.213586   21.733031 H          1 MOL1         0.0751
       3    O1      16.493228   16.665143   21.033755 O.3        1 MOL1        -0.3740
       4    C2      16.998125   15.153016   22.876839 C.3        1 MOL1         0.1003
       5    H2      16.816145   14.121837   23.206494 H          1 MOL1         0.0783
       6    O2      16.562803   16.056841   23.905289 O.3        1 MOL1        -0.5519
       7    H3      15.751660   16.511224   23.572068 H          1 MOL1         0.3769
       8    C3      18.515867   15.317953   22.638679 C.3        1 MOL1         0.1053
       9    H4      18.706073   16.369437   22.385681 H          1 MOL1         0.0783
      10    O3      19.210118   14.969915   23.840827 O.3        1 MOL1        -0.5519
      11    H5      18.725866   15.449721   24.549946 H          1 MOL1         0.3769
      12    C4      19.013841   14.442892   21.461806 C.3        1 MOL1         0.1018
      13    H6      19.085673   13.401730   21.803026 H          1 MOL1         0.0783
      14    C5      18.085259   14.531815   20.216817 C.3        1 MOL1         0.1043
      15    H7      18.227497   15.519693   19.759296 H          1 MOL1         0.0783
      16    O4      16.695137   14.385493   20.607566 O.3        1 MOL1        -0.3740
      17    C6      18.403031   13.476638   19.130471 C.3        1 MOL1         0.0138
      18    H8      19.356093   13.744141   18.654368 H          1 MOL1         0.0794
      19    H9      17.626317   13.527576   18.355720 H          1 MOL1         0.0794
      20    O5      18.484076   12.150835   19.669057 O.3        1 MOL1        -0.5486
      21    H10     18.604557   11.530659   18.917119 H          1 MOL1         0.3769
      22    C7      14.761017   20.361529   20.474346 C.3        1 MOL1         0.2972
      23    H11     14.165147   21.242856   20.204358 H          1 MOL1         0.0751
      24    O6      16.076907   20.728527   20.938767 O.3        1 MOL1        -0.3740
      25    C8      14.050977   19.503009   21.553365 C.3        1 MOL1         0.1003
      26    H12     13.130054   19.115056   21.098694 H          1 MOL1         0.0783
      27    O7      13.699395   20.272031   22.712487 O.3        1 MOL1        -0.5519
      28    H13     14.543958   20.613716   23.101438 H          1 MOL1         0.3769
      29    C9      14.933646   18.290672   21.941081 C.3        1 MOL1         0.1053
      30    H14     15.841093   18.668973   22.432793 H          1 MOL1         0.0783
      31    O8      14.203707   17.454562   22.845454 O.3        1 MOL1        -0.5519
      32    H15     13.742411   18.078287   23.451324 H          1 MOL1         0.3769
      33    C10     15.362049   17.484203   20.683274 C.3        1 MOL1         0.1018
      34    H16     14.514780   16.876097   20.342273 H          1 MOL1         0.0783
      35    C11     15.839866   18.390910   19.513496 C.3        1 MOL1         0.1043
      36    H17     16.828678   18.784940   19.772652 H          1 MOL1         0.0783
      37    O9      14.930012   19.503870   19.325393 O.3        1 MOL1        -0.3740
      38    C12     16.005800   17.639895   18.169544 C.3        1 MOL1         0.0138
      39    H18     16.895158   16.998907   18.236859 H          1 MOL1         0.0794
      40    H19     16.199531   18.378947   17.380936 H          1 MOL1         0.0794
      41    O10     14.861897   16.846412   17.829898 O.3        1 MOL1        -0.5486
      42    H20     14.878202   16.047485   18.399413 H          1 MOL1         0.3769
      43    C13     18.525154   23.731504   22.275129 C.3        1 MOL1         0.2972
      44    H21     18.996023   24.643893   22.661308 H          1 MOL1         0.0751
      45    O11     19.509820   22.800336   21.780392 O.3        1 MOL1        -0.3740
      46    C14     17.703437   23.051477   23.398877 C.3        1 MOL1         0.1003
      47    H22     16.904562   23.746623   23.687249 H          1 MOL1         0.0783
      48    O12     18.541937   22.807712   24.540014 O.3        1 MOL1        -0.5519
      49    H23     18.271211   21.947835   24.951270 H          1 MOL1         0.3769
      50    C15     17.033600   21.755583   22.877296 C.3        1 MOL1         0.1053
      51    H24     17.823491   21.026198   22.657375 H          1 MOL1         0.0783
      52    O13     16.142680   21.225660   23.867343 O.3        1 MOL1        -0.5519
      53    H25     16.711322   20.836067   24.582598 H          1 MOL1         0.3769
      54    C16     16.237066   22.012949   21.570739 C.3        1 MOL1         0.1018
      55    H26     15.273053   22.472325   21.826457 H          1 MOL1         0.0783
      56    C17     17.000089   22.900667   20.547625 C.3        1 MOL1         0.1043
      57    H27     17.781570   22.276068   20.102979 H          1 MOL1         0.0783
      58    O14     17.622469   24.041935   21.191527 O.3        1 MOL1        -0.3740
      59    C18     16.112265   23.409973   19.387126 C.3        1 MOL1         0.0138
      60    H28     15.854631   22.556206   18.745765 H          1 MOL1         0.0794
      61    H29     16.698301   24.110081   18.776710 H          1 MOL1         0.0794
      62    O15     14.915863   24.041303   19.859558 O.3        1 MOL1        -0.5486
      63    H30     14.442599   24.405123   19.079660 H          1 MOL1         0.3769
      64    C19     23.523390   22.601398   20.770655 C.3        1 MOL1         0.2972
      65    H31     24.533800   22.741074   20.365205 H          1 MOL1         0.0751
      66    O16     23.361222   21.303974   21.369791 O.3        1 MOL1        -0.3740
      67    C20     23.203382   23.660538   21.853332 C.3        1 MOL1         0.1003
      68    H32     23.280986   24.645617   21.375162 H          1 MOL1         0.0783
      69    O17     24.143982   23.587773   22.937818 O.3        1 MOL1        -0.5519
      70    H33     24.163327   22.646537   23.246927 H          1 MOL1         0.3769
      71    C21     21.755305   23.502355   22.386274 C.3        1 MOL1         0.1053
      72    H34     21.708014   22.584639   22.989452 H          1 MOL1         0.0783
      73    O18     21.456320   24.640278   23.201365 O.3        1 MOL1        -0.5519
      74    H35     22.200529   24.705052   23.838848 H          1 MOL1         0.3769
      75    C22     20.715244   23.373163   21.236578 C.3        1 MOL1         0.1018
      76    H36     20.533678   24.369260   20.813375 H          1 MOL1         0.0783
      77    C23     21.183121   22.411556   20.107504 C.3        1 MOL1         0.1043
      78    H37     21.155043   21.386771   20.498005 H          1 MOL1         0.0783
      79    O19     22.539736   22.737915   19.723675 O.3        1 MOL1        -0.3740
      80    C24     20.293558   22.422703   18.837633 C.3        1 MOL1         0.0138
      81    H38     19.490334   21.687685   18.972101 H          1 MOL1         0.0794
      82    H39     20.893939   22.075099   17.986442 H          1 MOL1         0.0794
      83    O20     19.732618   23.710900   18.550983 O.3        1 MOL1        -0.5486
      84    H40     19.155277   23.954932   19.308179 H          1 MOL1         0.3769
      85    C25     25.150155   17.677929   21.988608 C.3        1 MOL1         0.2972
      86    H41     25.808599   16.814113   22.146788 H          1 MOL1         0.0751
      87    O21     23.771436   17.279169   21.863828 O.3        1 MOL1        -0.3740
      88    C26     25.257881   18.644310   23.190946 C.3        1 MOL1         0.1003
      89    H42     26.295056   19.000026   23.243844 H          1 MOL1         0.0783
      90    O22     24.923230   17.958437   24.407621 O.3        1 MOL1        -0.5519
      91    H43     24.267280   17.260926   24.165459 H          1 MOL1         0.3769
      92    C27     24.337110   19.869043   22.988730 C.3        1 MOL1         0.1053
      93    H44     23.298904   19.518336   23.041659 H          1 MOL1         0.0783
      94    O23     24.573773   20.826933   24.026301 O.3        1 MOL1        -0.5519
      95    H45     24.558864   20.306480   24.860083 H          1 MOL1         0.3769
      96    C28     24.550753   20.532641   21.605869 C.3        1 MOL1         0.1018
      97    H46     25.450896   21.159974   21.651013 H          1 MOL1         0.0783
      98    C29     24.657019   19.507267   20.440940 C.3        1 MOL1         0.1043
      99    H47     23.646347   19.123857   20.253243 H          1 MOL1         0.0783
     100    O24     25.524189   18.399779   20.797738 O.3        1 MOL1        -0.3740
     101    C30     25.166472   20.119016   19.114003 C.3        1 MOL1         0.0138
     102    H48     24.378789   20.763623   18.701154 H          1 MOL1         0.0794
     103    H49     25.331923   19.306445   18.393815 H          1 MOL1         0.0794
     104    O25     26.369520   20.875798   19.295714 O.3        1 MOL1        -0.5486
     105    H50     26.676970   21.164711   18.408891 H          1 MOL1         0.3769
     106    C31     21.363183   14.033616   20.846594 C.3        1 MOL1         0.2972
     107    H51     20.976443   13.067665   20.497552 H          1 MOL1         0.0751
     108    O26     20.295797   14.976004   21.075012 O.3        1 MOL1        -0.3740
     109    C32     22.203626   13.866899   22.143280 C.3        1 MOL1         0.1003
     110    H52     23.049000   13.212273   21.894594 H          1 MOL1         0.0783
     111    O27     21.448156   13.259915   23.201944 O.3        1 MOL1        -0.5519
     112    H53     20.692516   13.868449   23.403109 H          1 MOL1         0.3769
     113    C33     22.780170   15.229845   22.598705 C.3        1 MOL1         0.1053
     114    H54     21.942240   15.874621   22.898062 H          1 MOL1         0.0783
     115    O28     23.661941   15.033917   23.709799 O.3        1 MOL1        -0.5519
     116    H55     23.183211   14.424335   24.314060 H          1 MOL1         0.3769
     117    C34     23.541148   15.923206   21.441235 C.3        1 MOL1         0.1018
     118    H56     24.478706   15.378978   21.267563 H          1 MOL1         0.0783
     119    C35     22.711001   15.947298   20.126502 C.3        1 MOL1         0.1043
     120    H57     21.855215   16.615852   20.276700 H          1 MOL1         0.0783
     121    O29     22.233877   14.606949   19.846637 O.3        1 MOL1        -0.3740
     122    C36     23.466510   16.462736   18.873864 C.3        1 MOL1         0.0138
     123    H58     23.308499   17.544493   18.790749 H          1 MOL1         0.0794
     124    H59     23.009529   16.011969   17.982819 H          1 MOL1         0.0794
     125    O30     24.870727   16.180682   18.898679 O.3        1 MOL1        -0.5486
     126    H60     25.282857   16.832445   19.512881 H          1 MOL1         0.3769
     127    C1      18.887513   19.353051   25.511231 C.2        1 MOL1         0.6115
     128    O1      19.524473   18.929028   26.455069 O.co2      1 MOL1        -0.6776
     129    O2      18.069977   20.250863   25.593759 O.co2      1 MOL1        -0.6776
     130    C2      19.136371   18.740520   24.137381 C.3        1 MOL1        -0.2013
     131    H1      18.196564   18.779230   23.576307 H          1 MOL1         0.0727
     132    H2      19.381972   17.684330   24.285815 H          1 MOL1         0.0727
     133    C3      20.280701   19.439524   23.358216 C.3        1 MOL1        -0.1910
     134    H3      20.061633   20.510214   23.252862 H          1 MOL1         0.0729
     135    H4      21.196160   19.372612   23.960309 H          1 MOL1         0.0729
     136    C4      20.547182   18.818550   21.966191 C.3        1 MOL1        -0.1909
     137    H5      20.722730   17.740819   22.072408 H          1 MOL1         0.0729
     138    H6      21.473424   19.246286   21.563688 H          1 MOL1         0.0729
     139    C5      19.402660   19.065715   20.959631 C.3        1 MOL1        -0.1884
     140    H7      18.489440   18.567900   21.306584 H          1 MOL1         0.0729
     141    H8      19.178339   20.138440   20.912364 H          1 MOL1         0.0729
     142    C6      19.760669   18.554446   19.549375 C.3        1 MOL1        -0.2899
     143    H9      18.978872   18.822342   18.828489 H          1 MOL1         0.0741
     144    H10     20.705082   18.991161   19.200374 H          1 MOL1         0.0741
     145    H11     19.861666   17.462147   19.546915 H          1 MOL1         0.0741
@<TRIPOS>BOND
    1     1     2    1
    2     1     3    1
    3     1     4    1
    4     4     5    1
    5     4     6    1
    6     6     7    1
    7     4     8    1
    8     8     9    1
    9     8    10    1
   10    10    11    1
   11     8    12    1
   12    12    13    1
   13    12    14    1
   14    14    15    1
   15     1    16    1
   16    14    16    1
   17    14    17    1
   18    17    18    1
   19    17    19    1
   20    17    20    1
   21    20    21    1
   22    22    23    1
   23    22    24    1
   24    22    25    1
   25    25    26    1
   26    25    27    1
   27    27    28    1
   28    25    29    1
   29    29    30    1
   30    29    31    1
   31    31    32    1
   32     3    33    1
   33    29    33    1
   34    33    34    1
   35    33    35    1
   36    35    36    1
   37    22    37    1
   38    35    37    1
   39    35    38    1
   40    38    39    1
   41    38    40    1
   42    38    41    1
   43    41    42    1
   44    43    44    1
   45    43    45    1
   46    43    46    1
   47    46    47    1
   48    46    48    1
   49    48    49    1
   50    46    50    1
   51    50    51    1
   52    50    52    1
   53    52    53    1
   54    24    54    1
   55    50    54    1
   56    54    55    1
   57    54    56    1
   58    56    57    1
   59    43    58    1
   60    56    58    1
   61    56    59    1
   62    59    60    1
   63    59    61    1
   64    59    62    1
   65    62    63    1
   66    64    65    1
   67    64    66    1
   68    64    67    1
   69    67    68    1
   70    67    69    1
   71    69    70    1
   72    67    71    1
   73    71    72    1
   74    71    73    1
   75    73    74    1
   76    45    75    1
   77    71    75    1
   78    75    76    1
   79    75    77    1
   80    77    78    1
   81    64    79    1
   82    77    79    1
   83    77    80    1
   84    80    81    1
   85    80    82    1
   86    80    83    1
   87    83    84    1
   88    85    86    1
   89    85    87    1
   90    85    88    1
   91    88    89    1
   92    88    90    1
   93    90    91    1
   94    88    92    1
   95    92    93    1
   96    92    94    1
   97    94    95    1
   98    66    96    1
   99    92    96    1
  100    96    97    1
  101    96    98    1
  102    98    99    1
  103    85   100    1
  104    98   100    1
  105    98   101    1
  106   101   102    1
  107   101   103    1
  108   101   104    1
  109   104   105    1
  110   106   107    1
  111    12   108    1
  112   106   108    1
  113   106   109    1
  114   109   110    1
  115   109   111    1
  116   111   112    1
  117   109   113    1
  118   113   114    1
  119   113   115    1
  120   115   116    1
  121    87   117    1
  122   113   117    1
  123   117   118    1
  124   117   119    1
  125   119   120    1
  126   106   121    1
  127   119   121    1
  128   119   122    1
  129   122   123    1
  130   122   124    1
  131   122   125    1
  132   125   126    1
  133   127   128    1
  134   127   129    2
  135   127   130    1
  136   130   131    1
  137   130   132    1
  138   130   133    1
  139   133   134    1
  140   133   135    1
  141   133   136    1
  142   136   137    1
  143   136   138    1
  144   136   139    1
  145   139   140    1
  146   139   141    1
  147   139   142    1
  148   142   143    1
  149   142   144    1
  150   142   145    1
@<TRIPOS>SUBSTRUCTURE
       1 MOL1            1 RESIDUE      1      MOL     
       2 MOL1          145 RESIDUE      1      MOL     
@<SCITEGIC>MOL_PROPERTY
feprocess Rank
SciTegic.value.IntegerValue
1

@<SCITEGIC>MOL_PROPERTY
Conf_Id
SciTegic.value.IntegerValue
98

@<SCITEGIC>MOL_PROPERTY
Probability
SciTegic.value.DoubleValue
62.54

@<SCITEGIC>MOL_PROPERTY
G
SciTegic.value.DoubleValue
497.387

@<SCITEGIC>MOL_PROPERTY
E
SciTegic.value.DoubleValue
310.070

@<SCITEGIC>MOL_PROPERTY
-TS
SciTegic.value.DoubleValue
187.317

@<SCITEGIC>MOL_PROPERTY
U+W
SciTegic.value.DoubleValue
182.193

@<SCITEGIC>MOL_PROPERTY
U
SciTegic.value.DoubleValue
263.532

@<SCITEGIC>MOL_PROPERTY
W
SciTegic.value.DoubleValue
-81.339

@<SCITEGIC>MOL_PROPERTY
W(PB)
SciTegic.value.DoubleValue
-87.381

@<SCITEGIC>MOL_PROPERTY
W(SA)
SciTegic.value.DoubleValue
6.043

@<SCITEGIC>MOL_PROPERTY
Valence
SciTegic.value.DoubleValue
151.107

@<SCITEGIC>MOL_PROPERTY
Coulomb
SciTegic.value.DoubleValue
137.853

@<SCITEGIC>MOL_PROPERTY
VdW
SciTegic.value.DoubleValue
-25.428

@<SCITEGIC>MOL_PROPERTY
VdW6
SciTegic.value.DoubleValue
-184.008

@<SCITEGIC>MOL_PROPERTY
VdW12
SciTegic.value.DoubleValue
158.580

@<SCITEGIC>MOL_PROPERTY
Bond
SciTegic.value.DoubleValue
4.818

@<SCITEGIC>MOL_PROPERTY
Angle
SciTegic.value.DoubleValue
14.394

@<SCITEGIC>MOL_PROPERTY
Pdih
SciTegic.value.DoubleValue
131.894

@<SCITEGIC>MOL_PROPERTY
Idih
SciTegic.value.DoubleValue
0.001

@<SCITEGIC>MOL_PROPERTY
Tether
SciTegic.value.DoubleValue
0.000

