@<TRIPOS>MOLECULE
CD_guest-s15_fast_vm2_rndm.mol2 : feprocess host+ligand conformer 1
         155         160           2
SMALL
USER_CHARGES
 
@<TRIPOS>ATOM
       1    C1      16.407724   15.254542   21.910428 C.3        1 MOL1         0.2972
       2    H1      15.371654   15.118315   22.245518 H          1 MOL1         0.0751
       3    O1      16.617443   16.568856   21.355852 O.3        1 MOL1        -0.3740
       4    C2      17.388691   15.043422   23.092297 C.3        1 MOL1         0.1003
       5    H2      17.238885   14.018013   23.454735 H          1 MOL1         0.0783
       6    O2      17.135308   15.962636   24.166562 O.3        1 MOL1        -0.5519
       7    H3      16.215110   16.300061   24.048195 H          1 MOL1         0.3769
       8    C3      18.855257   15.178446   22.624229 C.3        1 MOL1         0.1053
       9    H4      19.026359   16.220454   22.330427 H          1 MOL1         0.0783
      10    O3      19.713084   14.843657   23.717898 O.3        1 MOL1        -0.5519
      11    H5      19.333979   15.333708   24.482543 H          1 MOL1         0.3769
      12    C4      19.149412   14.282623   21.393877 C.3        1 MOL1         0.1018
      13    H6      19.234295   13.239184   21.725077 H          1 MOL1         0.0783
      14    C5      18.049922   14.403374   20.301714 C.3        1 MOL1         0.1043
      15    H7      18.142804   15.392433   19.835167 H          1 MOL1         0.0783
      16    O4      16.732483   14.282654   20.894150 O.3        1 MOL1        -0.3740
      17    C6      18.182505   13.351814   19.174186 C.3        1 MOL1         0.0138
      18    H8      19.061610   13.603742   18.565581 H          1 MOL1         0.0794
      19    H9      17.302009   13.424672   18.521847 H          1 MOL1         0.0794
      20    O5      18.313959   12.020502   19.688145 O.3        1 MOL1        -0.5486
      21    H10     18.311280   11.403830   18.923783 H          1 MOL1         0.3769
      22    C7      14.641140   20.231656   21.207993 C.3        1 MOL1         0.2972
      23    H11     13.914256   21.038867   21.051739 H          1 MOL1         0.0751
      24    O6      15.938894   20.739802   21.573978 O.3        1 MOL1        -0.3740
      25    C8      14.178810   19.309122   22.360281 C.3        1 MOL1         0.1003
      26    H12     13.194695   18.906859   22.086731 H          1 MOL1         0.0783
      27    O7      14.065847   20.054320   23.583965 O.3        1 MOL1        -0.5519
      28    H13     14.798873   20.718983   23.585024 H          1 MOL1         0.3769
      29    C9      15.150660   18.116618   22.546375 C.3        1 MOL1         0.1053
      30    H14     16.098905   18.512241   22.934789 H          1 MOL1         0.0783
      31    O8      14.578346   17.212181   23.497260 O.3        1 MOL1        -0.5519
      32    H15     14.198056   17.791032   24.196981 H          1 MOL1         0.3769
      33    C10     15.446320   17.396297   21.198390 C.3        1 MOL1         0.1018
      34    H16     14.575318   16.801763   20.892042 H          1 MOL1         0.0783
      35    C11     15.786019   18.400664   20.067587 C.3        1 MOL1         0.1043
      36    H17     16.761440   18.849112   20.283281 H          1 MOL1         0.0783
      37    O9      14.764217   19.422655   20.021751 O.3        1 MOL1        -0.3740
      38    C12     15.858640   17.727778   18.678603 C.3        1 MOL1         0.0138
      39    H18     16.370436   16.760959   18.772632 H          1 MOL1         0.0794
      40    H19     14.839099   17.529761   18.321764 H          1 MOL1         0.0794
      41    O10     16.568809   18.557274   17.751913 O.3        1 MOL1        -0.5486
      42    H20     16.494334   18.144472   16.866076 H          1 MOL1         0.3769
      43    C13     18.335989   24.112306   21.241981 C.3        1 MOL1         0.2972
      44    H21     18.726913   25.127058   21.095117 H          1 MOL1         0.0751
      45    O11     19.393484   23.147085   21.424477 O.3        1 MOL1        -0.3740
      46    C14     17.424587   24.066644   22.493998 C.3        1 MOL1         0.1003
      47    H22     16.589182   24.757588   22.321288 H          1 MOL1         0.0783
      48    O12     18.141269   24.476819   23.669485 O.3        1 MOL1        -0.5519
      49    H23     19.069979   24.142362   23.583117 H          1 MOL1         0.3769
      50    C15     16.839619   22.648153   22.682842 C.3        1 MOL1         0.1053
      51    H24     17.670646   21.970719   22.914150 H          1 MOL1         0.0783
      52    O13     15.903511   22.648069   23.766261 O.3        1 MOL1        -0.5519
      53    H25     16.342464   23.160687   24.481092 H          1 MOL1         0.3769
      54    C16     16.147108   22.152537   21.389911 C.3        1 MOL1         0.1018
      55    H26     15.200229   22.697273   21.280205 H          1 MOL1         0.0783
      56    C17     17.026271   22.364437   20.123844 C.3        1 MOL1         0.1043
      57    H27     17.865515   21.659395   20.163217 H          1 MOL1         0.0783
      58    O14     17.544135   23.716681   20.103983 O.3        1 MOL1        -0.3740
      59    C18     16.277127   22.126961   18.790753 C.3        1 MOL1         0.0138
      60    H28     16.112838   21.049813   18.666074 H          1 MOL1         0.0794
      61    H29     16.923086   22.449384   17.963425 H          1 MOL1         0.0794
      62    O15     15.024236   22.822147   18.743024 O.3        1 MOL1        -0.5486
      63    H30     14.601599   22.609260   17.882978 H          1 MOL1         0.3769
      64    C19     23.515769   22.704999   21.043325 C.3        1 MOL1         0.2972
      65    H31     24.586631   22.864024   20.868050 H          1 MOL1         0.0751
      66    O16     23.209942   21.298548   21.167854 O.3        1 MOL1        -0.3740
      67    C20     23.040578   23.476903   22.304832 C.3        1 MOL1         0.1003
      68    H32     23.198380   24.544617   22.103486 H          1 MOL1         0.0783
      69    O17     23.788509   23.119734   23.476135 O.3        1 MOL1        -0.5519
      70    H33     23.567325   22.176806   23.682249 H          1 MOL1         0.3769
      71    C21     21.525534   23.258849   22.526991 C.3        1 MOL1         0.1053
      72    H34     21.352595   22.194262   22.732466 H          1 MOL1         0.0783
      73    O18     21.084563   24.048677   23.636010 O.3        1 MOL1        -0.5519
      74    H35     21.771544   23.927571   24.328773 H          1 MOL1         0.3769
      75    C22     20.734169   23.648633   21.255788 C.3        1 MOL1         0.1018
      76    H36     20.757577   24.742446   21.164103 H          1 MOL1         0.0783
      77    C23     21.327637   23.012276   19.968128 C.3        1 MOL1         0.1043
      78    H37     21.118563   21.936447   19.987236 H          1 MOL1         0.0783
      79    O19     22.762933   23.217813   19.924044 O.3        1 MOL1        -0.3740
      80    C24     20.715106   23.580685   18.665789 C.3        1 MOL1         0.0138
      81    H38     19.676901   23.232055   18.587582 H          1 MOL1         0.0794
      82    H39     21.263755   23.166151   17.809636 H          1 MOL1         0.0794
      83    O20     20.750102   25.013327   18.633639 O.3        1 MOL1        -0.5486
      84    H40     20.360464   25.301601   17.779840 H          1 MOL1         0.3769
      85    C25     24.778516   17.575148   22.067016 C.3        1 MOL1         0.2972
      86    H41     25.388785   16.720103   22.384726 H          1 MOL1         0.0751
      87    O21     23.642559   17.157400   21.283539 O.3        1 MOL1        -0.3740
      88    C26     24.284193   18.375223   23.299643 C.3        1 MOL1         0.1003
      89    H42     25.175654   18.733455   23.830934 H          1 MOL1         0.0783
      90    O22     23.499201   17.564355   24.188846 O.3        1 MOL1        -0.5519
      91    H43     23.698751   16.620519   23.978008 H          1 MOL1         0.3769
      92    C27     23.458033   19.602641   22.858767 C.3        1 MOL1         0.1053
      93    H44     22.534286   19.229545   22.405518 H          1 MOL1         0.0783
      94    O23     23.144751   20.382325   24.015599 O.3        1 MOL1        -0.5519
      95    H45     22.870110   19.718752   24.688475 H          1 MOL1         0.3769
      96    C28     24.201685   20.460914   21.802837 C.3        1 MOL1         0.1018
      97    H46     24.973849   21.048519   22.315015 H          1 MOL1         0.0783
      98    C29     24.853110   19.599115   20.683473 C.3        1 MOL1         0.1043
      99    H47     24.049957   19.224449   20.035188 H          1 MOL1         0.0783
     100    O24     25.564289   18.473200   21.256901 O.3        1 MOL1        -0.3740
     101    C30     25.836480   20.386791   19.783504 C.3        1 MOL1         0.0138
     102    H48     25.273979   21.146694   19.224413 H          1 MOL1         0.0794
     103    H49     26.259645   19.692877   19.045113 H          1 MOL1         0.0794
     104    O25     26.893586   21.005469   20.529690 O.3        1 MOL1        -0.5486
     105    H50     26.506116   21.693951   21.107764 H          1 MOL1         0.3769
     106    C31     21.400861   13.793412   20.519458 C.3        1 MOL1         0.2972
     107    H51     20.971210   12.829306   20.218437 H          1 MOL1         0.0751
     108    O26     20.371129   14.767334   20.801820 O.3        1 MOL1        -0.3740
     109    C32     22.341419   13.635614   21.743442 C.3        1 MOL1         0.1003
     110    H52     23.187891   13.017499   21.416458 H          1 MOL1         0.0783
     111    O27     21.699469   12.980932   22.846751 O.3        1 MOL1        -0.5519
     112    H53     20.988852   13.592130   23.166178 H          1 MOL1         0.3769
     113    C33     22.900880   15.013641   22.172252 C.3        1 MOL1         0.1053
     114    H54     22.063984   15.626725   22.534676 H          1 MOL1         0.0783
     115    O28     23.851696   14.817364   23.225178 O.3        1 MOL1        -0.5519
     116    H55     23.462970   14.110939   23.790012 H          1 MOL1         0.3769
     117    C34     23.558520   15.752162   20.972393 C.3        1 MOL1         0.1018
     118    H56     24.551511   15.322550   20.789775 H          1 MOL1         0.0783
     119    C35     22.718088   15.665960   19.667148 C.3        1 MOL1         0.1043
     120    H57     21.861943   16.341480   19.778027 H          1 MOL1         0.0783
     121    O29     22.219258   14.322512   19.455971 O.3        1 MOL1        -0.3740
     122    C36     23.493691   16.115062   18.403409 C.3        1 MOL1         0.0138
     123    H58     23.648796   17.200999   18.453830 H          1 MOL1         0.0794
     124    H59     22.869477   15.915572   17.522919 H          1 MOL1         0.0794
     125    O30     24.756917   15.454249   18.262834 O.3        1 MOL1        -0.5486
     126    H60     25.375572   15.851572   18.912299 H          1 MOL1         0.3769
     127    C1      18.648562   19.416021   24.672031 C.3        1 MOL1        -0.2426
     128    H1      17.977203   20.269346   24.514208 H          1 MOL1         0.0959
     129    H2      18.039988   18.503099   24.693012 H          1 MOL1         0.0959
     130    H3      19.114858   19.531117   25.658744 H          1 MOL1         0.0959
     131    C2      19.724529   19.337087   23.569123 C.3        1 MOL1        -0.1410
     132    H4      20.385463   18.480904   23.766945 H          1 MOL1         0.0948
     133    H5      20.349989   20.238850   23.605187 H          1 MOL1         0.0948
     134    C3      19.092969   19.197880   22.168675 C.3        1 MOL1        -0.1435
     135    H6      18.425911   18.328689   22.155574 H          1 MOL1         0.0948
     136    H7      18.468608   20.074068   21.961984 H          1 MOL1         0.0948
     137    C4      20.156535   19.059135   21.059696 C.3        1 MOL1        -0.1435
     138    H8      20.822700   18.216042   21.290578 H          1 MOL1         0.0948
     139    H9      20.775254   19.964792   21.039929 H          1 MOL1         0.0948
     140    C5      19.513581   18.827884   19.676888 C.3        1 MOL1        -0.1435
     141    H10     19.002455   17.857107   19.692694 H          1 MOL1         0.0948
     142    H11     18.744271   19.587764   19.488154 H          1 MOL1         0.0948
     143    C6      20.553821   18.884185   18.534513 C.3        1 MOL1        -0.1500
     144    H12     21.405480   18.236542   18.765238 H          1 MOL1         0.0948
     145    H13     20.952471   19.905772   18.483086 H          1 MOL1         0.0948
     146    C7      19.965147   18.502412   17.158341 C.3        1 MOL1         0.1162
     147    H14     19.043628   19.074397   17.008902 H          1 MOL1         0.0910
     148    C8      19.628410   17.001648   17.070842 C.3        1 MOL1        -0.2491
     149    H15     19.265694   16.745822   16.067885 H          1 MOL1         0.0959
     150    H16     18.838134   16.727225   17.777780 H          1 MOL1         0.0959
     151    H17     20.506091   16.379949   17.283918 H          1 MOL1         0.0959
     152    N1      20.893591   18.890810   16.041342 N.4        1 MOL1        -0.5987
     153    H18     21.097299   19.894075   16.053002 H          1 MOL1         0.3605
     154    H19     20.483439   18.674581   15.128280 H          1 MOL1         0.3605
     155    H20     21.784273   18.391400   16.102340 H          1 MOL1         0.3605
@<TRIPOS>BOND
    1     1     2    1
    2     1     3    1
    3     1     4    1
    4     4     5    1
    5     4     6    1
    6     6     7    1
    7     4     8    1
    8     8     9    1
    9     8    10    1
   10    10    11    1
   11     8    12    1
   12    12    13    1
   13    12    14    1
   14    14    15    1
   15     1    16    1
   16    14    16    1
   17    14    17    1
   18    17    18    1
   19    17    19    1
   20    17    20    1
   21    20    21    1
   22    22    23    1
   23    22    24    1
   24    22    25    1
   25    25    26    1
   26    25    27    1
   27    27    28    1
   28    25    29    1
   29    29    30    1
   30    29    31    1
   31    31    32    1
   32     3    33    1
   33    29    33    1
   34    33    34    1
   35    33    35    1
   36    35    36    1
   37    22    37    1
   38    35    37    1
   39    35    38    1
   40    38    39    1
   41    38    40    1
   42    38    41    1
   43    41    42    1
   44    43    44    1
   45    43    45    1
   46    43    46    1
   47    46    47    1
   48    46    48    1
   49    48    49    1
   50    46    50    1
   51    50    51    1
   52    50    52    1
   53    52    53    1
   54    24    54    1
   55    50    54    1
   56    54    55    1
   57    54    56    1
   58    56    57    1
   59    43    58    1
   60    56    58    1
   61    56    59    1
   62    59    60    1
   63    59    61    1
   64    59    62    1
   65    62    63    1
   66    64    65    1
   67    64    66    1
   68    64    67    1
   69    67    68    1
   70    67    69    1
   71    69    70    1
   72    67    71    1
   73    71    72    1
   74    71    73    1
   75    73    74    1
   76    45    75    1
   77    71    75    1
   78    75    76    1
   79    75    77    1
   80    77    78    1
   81    64    79    1
   82    77    79    1
   83    77    80    1
   84    80    81    1
   85    80    82    1
   86    80    83    1
   87    83    84    1
   88    85    86    1
   89    85    87    1
   90    85    88    1
   91    88    89    1
   92    88    90    1
   93    90    91    1
   94    88    92    1
   95    92    93    1
   96    92    94    1
   97    94    95    1
   98    66    96    1
   99    92    96    1
  100    96    97    1
  101    96    98    1
  102    98    99    1
  103    85   100    1
  104    98   100    1
  105    98   101    1
  106   101   102    1
  107   101   103    1
  108   101   104    1
  109   104   105    1
  110   106   107    1
  111    12   108    1
  112   106   108    1
  113   106   109    1
  114   109   110    1
  115   109   111    1
  116   111   112    1
  117   109   113    1
  118   113   114    1
  119   113   115    1
  120   115   116    1
  121    87   117    1
  122   113   117    1
  123   117   118    1
  124   117   119    1
  125   119   120    1
  126   106   121    1
  127   119   121    1
  128   119   122    1
  129   122   123    1
  130   122   124    1
  131   122   125    1
  132   125   126    1
  133   127   128    1
  134   127   129    1
  135   127   130    1
  136   127   131    1
  137   131   132    1
  138   131   133    1
  139   131   134    1
  140   134   135    1
  141   134   136    1
  142   134   137    1
  143   137   138    1
  144   137   139    1
  145   137   140    1
  146   140   141    1
  147   140   142    1
  148   140   143    1
  149   143   144    1
  150   143   145    1
  151   143   146    1
  152   146   147    1
  153   146   148    1
  154   148   149    1
  155   148   150    1
  156   148   151    1
  157   146   152    1
  158   152   153    1
  159   152   154    1
  160   152   155    1
@<TRIPOS>SUBSTRUCTURE
       1 MOL1            1 RESIDUE      1      MOL     
       2 MOL1          155 RESIDUE      1      MOL     
@<SCITEGIC>MOL_PROPERTY
feprocess Rank
SciTegic.value.IntegerValue
1

@<SCITEGIC>MOL_PROPERTY
Conf_Id
SciTegic.value.IntegerValue
868

@<SCITEGIC>MOL_PROPERTY
Probability
SciTegic.value.DoubleValue
63.27

@<SCITEGIC>MOL_PROPERTY
G
SciTegic.value.DoubleValue
559.899

@<SCITEGIC>MOL_PROPERTY
E
SciTegic.value.DoubleValue
351.566

@<SCITEGIC>MOL_PROPERTY
-TS
SciTegic.value.DoubleValue
208.334

@<SCITEGIC>MOL_PROPERTY
U+W
SciTegic.value.DoubleValue
214.747

@<SCITEGIC>MOL_PROPERTY
U
SciTegic.value.DoubleValue
306.525

@<SCITEGIC>MOL_PROPERTY
W
SciTegic.value.DoubleValue
-91.778

@<SCITEGIC>MOL_PROPERTY
W(PB)
SciTegic.value.DoubleValue
-97.951

@<SCITEGIC>MOL_PROPERTY
W(SA)
SciTegic.value.DoubleValue
6.173

@<SCITEGIC>MOL_PROPERTY
Valence
SciTegic.value.DoubleValue
146.882

@<SCITEGIC>MOL_PROPERTY
Coulomb
SciTegic.value.DoubleValue
187.995

@<SCITEGIC>MOL_PROPERTY
VdW
SciTegic.value.DoubleValue
-28.352

@<SCITEGIC>MOL_PROPERTY
VdW6
SciTegic.value.DoubleValue
-184.145

@<SCITEGIC>MOL_PROPERTY
VdW12
SciTegic.value.DoubleValue
155.793

@<SCITEGIC>MOL_PROPERTY
Bond
SciTegic.value.DoubleValue
4.519

@<SCITEGIC>MOL_PROPERTY
Angle
SciTegic.value.DoubleValue
11.818

@<SCITEGIC>MOL_PROPERTY
Pdih
SciTegic.value.DoubleValue
130.544

@<SCITEGIC>MOL_PROPERTY
Idih
SciTegic.value.DoubleValue
0.000

@<SCITEGIC>MOL_PROPERTY
Tether
SciTegic.value.DoubleValue
0.000

@<TRIPOS>MOLECULE
CD_guest-s15_fast_vm2_rndm.mol2 : feprocess host+ligand conformer 2
         155         160           2
SMALL
USER_CHARGES
 
@<TRIPOS>ATOM
       1    C1      16.310969   15.317413   21.947708 C.3        1 MOL1         0.2972
       2    H1      15.237484   15.252167   22.165800 H          1 MOL1         0.0751
       3    O1      16.656239   16.580966   21.342082 O.3        1 MOL1        -0.3740
       4    C2      17.135394   15.153077   23.248447 C.3        1 MOL1         0.1003
       5    H2      16.907196   14.159870   23.656710 H          1 MOL1         0.0783
       6    O2      16.790888   16.157783   24.217437 O.3        1 MOL1        -0.5519
       7    H3      15.929826   16.549847   23.934279 H          1 MOL1         0.3769
       8    C3      18.648675   15.217930   22.941532 C.3        1 MOL1         0.1053
       9    H4      18.869938   16.236360   22.613290 H          1 MOL1         0.0783
      10    O3      19.383317   14.932425   24.134990 O.3        1 MOL1        -0.5519
      11    H5      18.896854   15.414576   24.840660 H          1 MOL1         0.3769
      12    C4      19.064183   14.258647   21.797969 C.3        1 MOL1         0.1018
      13    H6      19.133585   13.241088   22.205018 H          1 MOL1         0.0783
      14    C5      18.078219   14.290022   20.594537 C.3        1 MOL1         0.1043
      15    H7      18.244327   15.225403   20.045405 H          1 MOL1         0.0783
      16    O4      16.704319   14.255435   21.053942 O.3        1 MOL1        -0.3740
      17    C6      18.290883   13.130957   19.591582 C.3        1 MOL1         0.0138
      18    H8      19.230544   13.306875   19.050529 H          1 MOL1         0.0794
      19    H9      17.479206   13.155229   18.852074 H          1 MOL1         0.0794
      20    O5      18.336379   11.853939   20.240710 O.3        1 MOL1        -0.5486
      21    H10     18.392020   11.166231   19.541681 H          1 MOL1         0.3769
      22    C7      14.876631   20.250497   20.510585 C.3        1 MOL1         0.2972
      23    H11     14.223466   21.057098   20.153770 H          1 MOL1         0.0751
      24    O6      16.116913   20.758848   21.043436 O.3        1 MOL1        -0.3740
      25    C8      14.177315   19.439236   21.630390 C.3        1 MOL1         0.1003
      26    H12     13.260496   19.011501   21.204182 H          1 MOL1         0.0783
      27    O7      13.832956   20.286701   22.738593 O.3        1 MOL1        -0.5519
      28    H13     14.596598   20.899133   22.892592 H          1 MOL1         0.3769
      29    C9      15.074815   18.269576   22.104256 C.3        1 MOL1         0.1053
      30    H14     15.957104   18.705401   22.588080 H          1 MOL1         0.0783
      31    O8      14.352558   17.478317   23.054386 O.3        1 MOL1        -0.5519
      32    H15     13.872443   18.132365   23.611818 H          1 MOL1         0.3769
      33    C10     15.554944   17.403279   20.905412 C.3        1 MOL1         0.1018
      34    H16     14.722190   16.791636   20.533763 H          1 MOL1         0.0783
      35    C11     16.101548   18.273694   19.741428 C.3        1 MOL1         0.1043
      36    H17     17.056021   18.707650   20.059901 H          1 MOL1         0.0783
      37    O9      15.177092   19.343187   19.431447 O.3        1 MOL1        -0.3740
      38    C12     16.367707   17.468673   18.447059 C.3        1 MOL1         0.0138
      39    H18     17.207037   16.784985   18.629220 H          1 MOL1         0.0794
      40    H19     16.679017   18.166635   17.658536 H          1 MOL1         0.0794
      41    O10     15.217675   16.724198   18.026323 O.3        1 MOL1        -0.5486
      42    H20     15.446188   16.269118   17.187199 H          1 MOL1         0.3769
      43    C13     18.434845   24.187763   21.267646 C.3        1 MOL1         0.2972
      44    H21     18.844727   25.205469   21.234798 H          1 MOL1         0.0751
      45    O11     19.461822   23.203038   21.510522 O.3        1 MOL1        -0.3740
      46    C14     17.355300   24.056540   22.372775 C.3        1 MOL1         0.1003
      47    H22     16.530296   24.729588   22.105052 H          1 MOL1         0.0783
      48    O12     17.863135   24.436082   23.660567 O.3        1 MOL1        -0.5519
      49    H23     18.717927   23.954785   23.799675 H          1 MOL1         0.3769
      50    C15     16.798756   22.612813   22.403834 C.3        1 MOL1         0.1053
      51    H24     17.612659   21.936580   22.694825 H          1 MOL1         0.0783
      52    O13     15.734604   22.526998   23.357052 O.3        1 MOL1        -0.5519
      53    H25     16.058353   23.018796   24.144683 H          1 MOL1         0.3769
      54    C16     16.286114   22.189981   21.005265 C.3        1 MOL1         0.1018
      55    H26     15.337092   22.711167   20.822956 H          1 MOL1         0.0783
      56    C17     17.294323   22.522365   19.866769 C.3        1 MOL1         0.1043
      57    H27     18.137922   21.825278   19.934487 H          1 MOL1         0.0783
      58    O14     17.795255   23.875025   20.011931 O.3        1 MOL1        -0.3740
      59    C18     16.690549   22.376841   18.449311 C.3        1 MOL1         0.0138
      60    H28     16.538263   21.309218   18.242551 H          1 MOL1         0.0794
      61    H29     17.420038   22.749152   17.717722 H          1 MOL1         0.0794
      62    O15     15.448281   23.079435   18.315874 O.3        1 MOL1        -0.5486
      63    H30     15.147323   22.977579   17.386743 H          1 MOL1         0.3769
      64    C19     23.492209   22.644149   22.184029 C.3        1 MOL1         0.2972
      65    H31     24.566343   22.731842   22.393150 H          1 MOL1         0.0751
      66    O16     23.141166   21.313643   21.758297 O.3        1 MOL1        -0.3740
      67    C20     22.680019   22.982810   23.456073 C.3        1 MOL1         0.1003
      68    H32     22.913106   24.020710   23.727431 H          1 MOL1         0.0783
      69    O17     23.039698   22.114514   24.544455 O.3        1 MOL1        -0.5519
      70    H33     23.763663   21.525107   24.218702 H          1 MOL1         0.3769
      71    C21     21.164288   22.885059   23.173870 C.3        1 MOL1         0.1053
      72    H34     20.928380   21.835212   22.978491 H          1 MOL1         0.0783
      73    O18     20.447349   23.327106   24.328474 O.3        1 MOL1        -0.5519
      74    H35     20.940151   22.940806   25.087140 H          1 MOL1         0.3769
      75    C22     20.750991   23.702078   21.924294 C.3        1 MOL1         0.1018
      76    H36     20.718347   24.765040   22.197696 H          1 MOL1         0.0783
      77    C23     21.713742   23.487532   20.721145 C.3        1 MOL1         0.1043
      78    H37     21.519077   22.487385   20.314296 H          1 MOL1         0.0783
      79    O19     23.100696   23.562405   21.142314 O.3        1 MOL1        -0.3740
      80    C24     21.492503   24.499886   19.572168 C.3        1 MOL1         0.0138
      81    H38     20.528131   24.279165   19.094586 H          1 MOL1         0.0794
      82    H39     22.274048   24.349000   18.815444 H          1 MOL1         0.0794
      83    O20     21.503755   25.855064   20.038282 O.3        1 MOL1        -0.5486
      84    H40     21.419574   26.440368   19.254167 H          1 MOL1         0.3769
      85    C25     24.968738   17.692727   20.812616 C.3        1 MOL1         0.2972
      86    H41     25.655499   16.916652   20.451055 H          1 MOL1         0.0751
      87    O21     23.699653   17.140798   21.222317 O.3        1 MOL1        -0.3740
      88    C26     25.570831   18.429718   22.037554 C.3        1 MOL1         0.1003
      89    H42     26.513664   18.891109   21.716214 H          1 MOL1         0.0783
      90    O22     25.835659   17.514511   23.113334 O.3        1 MOL1        -0.5519
      91    H43     25.092786   16.859967   23.141486 H          1 MOL1         0.3769
      92    C27     24.622006   19.558426   22.510170 C.3        1 MOL1         0.1053
      93    H44     23.700770   19.091141   22.871942 H          1 MOL1         0.0783
      94    O23     25.236788   20.300348   23.568647 O.3        1 MOL1        -0.5519
      95    H45     25.671015   19.621595   24.133222 H          1 MOL1         0.3769
      96    C28     24.244443   20.493241   21.335800 C.3        1 MOL1         0.1018
      97    H46     25.122298   21.092878   21.061744 H          1 MOL1         0.0783
      98    C29     23.763668   19.699242   20.094379 C.3        1 MOL1         0.1043
      99    H47     22.807555   19.223332   20.343155 H          1 MOL1         0.0783
     100    O24     24.732361   18.672362   19.776247 O.3        1 MOL1        -0.3740
     101    C30     23.530417   20.580030   18.838859 C.3        1 MOL1         0.0138
     102    H48     22.530608   21.025844   18.906426 H          1 MOL1         0.0794
     103    H49     23.534085   19.933288   17.951395 H          1 MOL1         0.0794
     104    O25     24.500557   21.624330   18.693774 O.3        1 MOL1        -0.5486
     105    H50     24.303130   22.302711   19.377846 H          1 MOL1         0.3769
     106    C31     21.358360   13.740732   21.096967 C.3        1 MOL1         0.2972
     107    H51     20.930562   12.736562   20.980604 H          1 MOL1         0.0751
     108    O26     20.332738   14.734952   21.301745 O.3        1 MOL1        -0.3740
     109    C32     22.354037   13.791414   22.284442 C.3        1 MOL1         0.1003
     110    H52     23.178033   13.106221   22.046033 H          1 MOL1         0.0783
     111    O27     21.743085   13.371972   23.514056 O.3        1 MOL1        -0.5519
     112    H53     20.955709   13.952991   23.667875 H          1 MOL1         0.3769
     113    C33     22.945398   15.213806   22.427972 C.3        1 MOL1         0.1053
     114    H54     22.133963   15.894920   22.717793 H          1 MOL1         0.0783
     115    O28     23.959300   15.205904   23.437709 O.3        1 MOL1        -0.5519
     116    H55     23.587752   14.664570   24.169149 H          1 MOL1         0.3769
     117    C34     23.548351   15.713377   21.091641 C.3        1 MOL1         0.1018
     118    H56     24.511945   15.208073   20.944426 H          1 MOL1         0.0783
     119    C35     22.623048   15.449133   19.869641 C.3        1 MOL1         0.1043
     120    H57     21.785255   16.154174   19.914860 H          1 MOL1         0.0783
     121    O29     22.098940   14.098380   19.911007 O.3        1 MOL1        -0.3740
     122    C36     23.326657   15.660530   18.507707 C.3        1 MOL1         0.0138
     123    H58     23.501199   16.735740   18.368521 H          1 MOL1         0.0794
     124    H59     22.647795   15.334700   17.708342 H          1 MOL1         0.0794
     125    O30     24.569949   14.952138   18.425218 O.3        1 MOL1        -0.5486
     126    H60     24.933879   15.093597   17.524201 H          1 MOL1         0.3769
     127    C1      20.101947   18.673759   19.303978 C.3        1 MOL1        -0.2426
     128    H1      19.160685   19.019775   18.858854 H          1 MOL1         0.0959
     129    H2      20.829057   19.486937   19.214773 H          1 MOL1         0.0959
     130    H3      20.462154   17.824557   18.709636 H          1 MOL1         0.0959
     131    C2      19.898713   18.265287   20.778273 C.3        1 MOL1        -0.1410
     132    H4      20.822156   17.826096   21.178597 H          1 MOL1         0.0948
     133    H5      19.130344   17.484209   20.818346 H          1 MOL1         0.0948
     134    C3      19.477030   19.468742   21.650257 C.3        1 MOL1        -0.1435
     135    H6      20.315948   20.168192   21.736994 H          1 MOL1         0.0948
     136    H7      18.679715   20.015661   21.135858 H          1 MOL1         0.0948
     137    C4      18.944830   19.070243   23.049659 C.3        1 MOL1        -0.1435
     138    H8      18.113450   18.367564   22.921792 H          1 MOL1         0.0948
     139    H9      18.509967   19.954349   23.534284 H          1 MOL1         0.0948
     140    C5      19.982806   18.435260   24.006389 C.3        1 MOL1        -0.1435
     141    H10     19.442819   18.049186   24.880703 H          1 MOL1         0.0948
     142    H11     20.456034   17.569211   23.528021 H          1 MOL1         0.0948
     143    C6      21.068216   19.437136   24.469444 C.3        1 MOL1        -0.1500
     144    H12     20.590575   20.378714   24.767637 H          1 MOL1         0.0948
     145    H13     21.715363   19.681608   23.620320 H          1 MOL1         0.0948
     146    C7      21.944957   18.951821   25.646376 C.3        1 MOL1         0.1162
     147    H14     22.734116   19.696384   25.793330 H          1 MOL1         0.0910
     148    C8      22.615435   17.597086   25.364646 C.3        1 MOL1        -0.2491
     149    H15     23.171533   17.625123   24.422772 H          1 MOL1         0.0959
     150    H16     23.327578   17.346291   26.159985 H          1 MOL1         0.0959
     151    H17     21.881343   16.784292   25.302712 H          1 MOL1         0.0959
     152    N1      21.172925   18.900364   26.935275 N.4        1 MOL1        -0.5987
     153    H18     20.766413   19.812299   27.161815 H          1 MOL1         0.3605
     154    H19     21.773334   18.626939   27.717940 H          1 MOL1         0.3605
     155    H20     20.407768   18.223819   26.880011 H          1 MOL1         0.3605
@<TRIPOS>BOND
    1     1     2    1
    2     1     3    1
    3     1     4    1
    4     4     5    1
    5     4     6    1
    6     6     7    1
    7     4     8    1
    8     8     9    1
    9     8    10    1
   10    10    11    1
   11     8    12    1
   12    12    13    1
   13    12    14    1
   14    14    15    1
   15     1    16    1
   16    14    16    1
   17    14    17    1
   18    17    18    1
   19    17    19    1
   20    17    20    1
   21    20    21    1
   22    22    23    1
   23    22    24    1
   24    22    25    1
   25    25    26    1
   26    25    27    1
   27    27    28    1
   28    25    29    1
   29    29    30    1
   30    29    31    1
   31    31    32    1
   32     3    33    1
   33    29    33    1
   34    33    34    1
   35    33    35    1
   36    35    36    1
   37    22    37    1
   38    35    37    1
   39    35    38    1
   40    38    39    1
   41    38    40    1
   42    38    41    1
   43    41    42    1
   44    43    44    1
   45    43    45    1
   46    43    46    1
   47    46    47    1
   48    46    48    1
   49    48    49    1
   50    46    50    1
   51    50    51    1
   52    50    52    1
   53    52    53    1
   54    24    54    1
   55    50    54    1
   56    54    55    1
   57    54    56    1
   58    56    57    1
   59    43    58    1
   60    56    58    1
   61    56    59    1
   62    59    60    1
   63    59    61    1
   64    59    62    1
   65    62    63    1
   66    64    65    1
   67    64    66    1
   68    64    67    1
   69    67    68    1
   70    67    69    1
   71    69    70    1
   72    67    71    1
   73    71    72    1
   74    71    73    1
   75    73    74    1
   76    45    75    1
   77    71    75    1
   78    75    76    1
   79    75    77    1
   80    77    78    1
   81    64    79    1
   82    77    79    1
   83    77    80    1
   84    80    81    1
   85    80    82    1
   86    80    83    1
   87    83    84    1
   88    85    86    1
   89    85    87    1
   90    85    88    1
   91    88    89    1
   92    88    90    1
   93    90    91    1
   94    88    92    1
   95    92    93    1
   96    92    94    1
   97    94    95    1
   98    66    96    1
   99    92    96    1
  100    96    97    1
  101    96    98    1
  102    98    99    1
  103    85   100    1
  104    98   100    1
  105    98   101    1
  106   101   102    1
  107   101   103    1
  108   101   104    1
  109   104   105    1
  110   106   107    1
  111    12   108    1
  112   106   108    1
  113   106   109    1
  114   109   110    1
  115   109   111    1
  116   111   112    1
  117   109   113    1
  118   113   114    1
  119   113   115    1
  120   115   116    1
  121    87   117    1
  122   113   117    1
  123   117   118    1
  124   117   119    1
  125   119   120    1
  126   106   121    1
  127   119   121    1
  128   119   122    1
  129   122   123    1
  130   122   124    1
  131   122   125    1
  132   125   126    1
  133   127   128    1
  134   127   129    1
  135   127   130    1
  136   127   131    1
  137   131   132    1
  138   131   133    1
  139   131   134    1
  140   134   135    1
  141   134   136    1
  142   134   137    1
  143   137   138    1
  144   137   139    1
  145   137   140    1
  146   140   141    1
  147   140   142    1
  148   140   143    1
  149   143   144    1
  150   143   145    1
  151   143   146    1
  152   146   147    1
  153   146   148    1
  154   148   149    1
  155   148   150    1
  156   148   151    1
  157   146   152    1
  158   152   153    1
  159   152   154    1
  160   152   155    1
@<TRIPOS>SUBSTRUCTURE
       1 MOL1            1 RESIDUE      1      MOL     
       2 MOL1          155 RESIDUE      1      MOL     
@<SCITEGIC>MOL_PROPERTY
feprocess Rank
SciTegic.value.IntegerValue
2

@<SCITEGIC>MOL_PROPERTY
Conf_Id
SciTegic.value.IntegerValue
280

@<SCITEGIC>MOL_PROPERTY
Probability
SciTegic.value.DoubleValue
34.85

@<SCITEGIC>MOL_PROPERTY
G
SciTegic.value.DoubleValue
560.255

@<SCITEGIC>MOL_PROPERTY
E
SciTegic.value.DoubleValue
350.949

@<SCITEGIC>MOL_PROPERTY
-TS
SciTegic.value.DoubleValue
209.306

@<SCITEGIC>MOL_PROPERTY
U+W
SciTegic.value.DoubleValue
214.129

@<SCITEGIC>MOL_PROPERTY
U
SciTegic.value.DoubleValue
303.251

@<SCITEGIC>MOL_PROPERTY
W
SciTegic.value.DoubleValue
-89.122

@<SCITEGIC>MOL_PROPERTY
W(PB)
SciTegic.value.DoubleValue
-95.272

@<SCITEGIC>MOL_PROPERTY
W(SA)
SciTegic.value.DoubleValue
6.149

@<SCITEGIC>MOL_PROPERTY
Valence
SciTegic.value.DoubleValue
149.856

@<SCITEGIC>MOL_PROPERTY
Coulomb
SciTegic.value.DoubleValue
182.632

@<SCITEGIC>MOL_PROPERTY
VdW
SciTegic.value.DoubleValue
-29.237

@<SCITEGIC>MOL_PROPERTY
VdW6
SciTegic.value.DoubleValue
-188.172

@<SCITEGIC>MOL_PROPERTY
VdW12
SciTegic.value.DoubleValue
158.935

@<SCITEGIC>MOL_PROPERTY
Bond
SciTegic.value.DoubleValue
4.667

@<SCITEGIC>MOL_PROPERTY
Angle
SciTegic.value.DoubleValue
12.065

@<SCITEGIC>MOL_PROPERTY
Pdih
SciTegic.value.DoubleValue
133.123

@<SCITEGIC>MOL_PROPERTY
Idih
SciTegic.value.DoubleValue
0.000

@<SCITEGIC>MOL_PROPERTY
Tether
SciTegic.value.DoubleValue
0.000

@<TRIPOS>MOLECULE
CD_guest-s15_fast_vm2_rndm.mol2 : feprocess host+ligand conformer 3
         155         160           2
SMALL
USER_CHARGES
 
@<TRIPOS>ATOM
       1    C1      16.107294   15.034922   21.060128 C.3        1 MOL1         0.2972
       2    H1      15.020692   14.912436   20.964412 H          1 MOL1         0.0751
       3    O1      16.475141   16.416128   21.271538 O.3        1 MOL1        -0.3740
       4    C2      16.664703   14.187214   22.231498 C.3        1 MOL1         0.1003
       5    H2      16.492481   13.132033   21.981934 H          1 MOL1         0.0783
       6    O2      16.001630   14.483985   23.469092 O.3        1 MOL1        -0.5519
       7    H3      16.046875   15.464274   23.603242 H          1 MOL1         0.3769
       8    C3      18.191437   14.402715   22.357924 C.3        1 MOL1         0.1053
       9    H4      18.369670   15.450886   22.630147 H          1 MOL1         0.0783
      10    O3      18.712880   13.546549   23.378499 O.3        1 MOL1        -0.5519
      11    H5      18.067809   13.610209   24.118192 H          1 MOL1         0.3769
      12    C4      18.906376   14.118711   21.012764 C.3        1 MOL1         0.1018
      13    H6      18.955519   13.030326   20.877173 H          1 MOL1         0.0783
      14    C5      18.193298   14.770513   19.791333 C.3        1 MOL1         0.1043
      15    H7      18.390885   15.848197   19.807788 H          1 MOL1         0.0783
      16    O4      16.760198   14.566082   19.861226 O.3        1 MOL1        -0.3740
      17    C6      18.700622   14.235298   18.430964 C.3        1 MOL1         0.0138
      18    H8      19.724483   14.599961   18.272914 H          1 MOL1         0.0794
      19    H9      18.076406   14.658567   17.632701 H          1 MOL1         0.0794
      20    O5      18.681343   12.803348   18.372318 O.3        1 MOL1        -0.5486
      21    H10     18.969720   12.538340   17.471776 H          1 MOL1         0.3769
      22    C7      14.967073   20.221653   21.847222 C.3        1 MOL1         0.2972
      23    H11     14.351037   21.112456   22.025795 H          1 MOL1         0.0751
      24    O6      16.300795   20.572588   21.430686 O.3        1 MOL1        -0.3740
      25    C8      15.063859   19.377051   23.139469 C.3        1 MOL1         0.1003
      26    H12     14.043979   19.067642   23.403236 H          1 MOL1         0.0783
      27    O7      15.624584   20.144028   24.219036 O.3        1 MOL1        -0.5519
      28    H13     15.580486   21.095268   23.948550 H          1 MOL1         0.3769
      29    C9      15.912005   18.108693   22.893623 C.3        1 MOL1         0.1053
      30    H14     16.938840   18.431469   22.695263 H          1 MOL1         0.0783
      31    O8      15.883829   17.295347   24.070466 O.3        1 MOL1        -0.5519
      32    H15     15.657718   17.913057   24.800785 H          1 MOL1         0.3769
      33    C10     15.412899   17.312234   21.660531 C.3        1 MOL1         0.1018
      34    H16     14.498857   16.772942   21.942507 H          1 MOL1         0.0783
      35    C11     15.134880   18.225367   20.432026 C.3        1 MOL1         0.1043
      36    H17     16.102482   18.546167   20.026339 H          1 MOL1         0.0783
      37    O9      14.375989   19.398946   20.820070 O.3        1 MOL1        -0.3740
      38    C12     14.376940   17.504222   19.291879 C.3        1 MOL1         0.0138
      39    H18     15.053408   16.769250   18.834677 H          1 MOL1         0.0794
      40    H19     14.123591   18.240901   18.517750 H          1 MOL1         0.0794
      41    O10     13.193281   16.846851   19.761948 O.3        1 MOL1        -0.5486
      42    H20     12.732441   16.469194   18.981228 H          1 MOL1         0.3769
      43    C13     18.538400   24.020426   20.718444 C.3        1 MOL1         0.2972
      44    H21     18.869864   25.012475   20.385521 H          1 MOL1         0.0751
      45    O11     19.630251   23.237989   21.241080 O.3        1 MOL1        -0.3740
      46    C14     17.488670   24.151032   21.851643 C.3        1 MOL1         0.1003
      47    H22     16.646582   24.734221   21.456834 H          1 MOL1         0.0783
      48    O12     18.050400   24.833458   22.985210 O.3        1 MOL1        -0.5519
      49    H23     18.967406   24.483344   23.114524 H          1 MOL1         0.3769
      50    C15     16.953292   22.759957   22.274694 C.3        1 MOL1         0.1053
      51    H24     17.775414   22.215748   22.755449 H          1 MOL1         0.0783
      52    O13     15.878839   22.930043   23.206062 O.3        1 MOL1        -0.5519
      53    H25     16.184780   23.637219   23.818068 H          1 MOL1         0.3769
      54    C16     16.483666   21.945079   21.040073 C.3        1 MOL1         0.1018
      55    H26     15.553507   22.383809   20.656070 H          1 MOL1         0.0783
      56    C17     17.541208   21.940142   19.907666 C.3        1 MOL1         0.1043
      57    H27     18.413626   21.373332   20.253075 H          1 MOL1         0.0783
      58    O14     17.938247   23.300031   19.619898 O.3        1 MOL1        -0.3740
      59    C18     17.050378   21.271294   18.598684 C.3        1 MOL1         0.0138
      60    H28     17.098218   20.182750   18.726027 H          1 MOL1         0.0794
      61    H29     17.744962   21.533142   17.789494 H          1 MOL1         0.0794
      62    O15     15.714082   21.646942   18.244849 O.3        1 MOL1        -0.5486
      63    H30     15.107938   21.201781   18.876682 H          1 MOL1         0.3769
      64    C19     23.727857   22.929803   21.247572 C.3        1 MOL1         0.2972
      65    H31     24.817933   23.039704   21.180025 H          1 MOL1         0.0751
      66    O16     23.337858   21.542423   21.366301 O.3        1 MOL1        -0.3740
      67    C20     23.149853   23.745631   22.434358 C.3        1 MOL1         0.1003
      68    H32     23.318642   24.806824   22.208875 H          1 MOL1         0.0783
      69    O17     23.798951   23.435195   23.674734 O.3        1 MOL1        -0.5519
      70    H33     23.661282   22.469323   23.842337 H          1 MOL1         0.3769
      71    C21     21.621890   23.520559   22.529148 C.3        1 MOL1         0.1053
      72    H34     21.443754   22.462539   22.762262 H          1 MOL1         0.0783
      73    O18     21.068054   24.341257   23.563319 O.3        1 MOL1        -0.5519
      74    H35     21.686277   24.250498   24.322216 H          1 MOL1         0.3769
      75    C22     20.932623   23.850579   21.181950 C.3        1 MOL1         0.1018
      76    H36     20.869068   24.943414   21.096714 H          1 MOL1         0.0783
      77    C23     21.676776   23.263572   19.946662 C.3        1 MOL1         0.1043
      78    H37     21.474332   22.187303   19.917126 H          1 MOL1         0.0783
      79    O19     23.108383   23.461138   20.059092 O.3        1 MOL1        -0.3740
      80    C24     21.214520   23.864752   18.597051 C.3        1 MOL1         0.0138
      81    H38     20.209713   23.486775   18.368635 H          1 MOL1         0.0794
      82    H39     21.884308   23.502532   17.805640 H          1 MOL1         0.0794
      83    O20     21.201264   25.297612   18.619376 O.3        1 MOL1        -0.5486
      84    H40     20.958404   25.607541   17.719739 H          1 MOL1         0.3769
      85    C25     24.719236   17.726015   22.214391 C.3        1 MOL1         0.2972
      86    H41     25.307940   16.847489   22.508114 H          1 MOL1         0.0751
      87    O21     23.489838   17.347079   21.565573 O.3        1 MOL1        -0.3740
      88    C26     24.383103   18.581170   23.460453 C.3        1 MOL1         0.1003
      89    H42     25.337792   18.889858   23.906117 H          1 MOL1         0.0783
      90    O22     23.629579   17.833082   24.428897 O.3        1 MOL1        -0.5519
      91    H43     23.707637   16.879132   24.184273 H          1 MOL1         0.3769
      92    C27     23.601695   19.852730   23.063501 C.3        1 MOL1         0.1053
      93    H44     22.614020   19.542949   22.701657 H          1 MOL1         0.0783
      94    O23     23.457766   20.668716   24.226448 O.3        1 MOL1        -0.5519
      95    H45     23.285880   20.025835   24.950399 H          1 MOL1         0.3769
      96    C28     24.310118   20.638581   21.931691 C.3        1 MOL1         0.1018
      97    H46     25.169333   21.172199   22.359552 H          1 MOL1         0.0783
      98    C29     24.783115   19.712244   20.775564 C.3        1 MOL1         0.1043
      99    H47     23.895672   19.379456   20.223024 H          1 MOL1         0.0783
     100    O24     25.473504   18.549789   21.300321 O.3        1 MOL1        -0.3740
     101    C30     25.712571   20.422736   19.762816 C.3        1 MOL1         0.0138
     102    H48     25.115089   21.145502   19.190577 H          1 MOL1         0.0794
     103    H49     26.092355   19.676802   19.051832 H          1 MOL1         0.0794
     104    O25     26.800455   21.096676   20.408059 O.3        1 MOL1        -0.5486
     105    H50     27.384078   21.459946   19.706666 H          1 MOL1         0.3769
     106    C31     21.333528   13.879057   20.743148 C.3        1 MOL1         0.2972
     107    H51     21.012213   12.881632   20.416904 H          1 MOL1         0.0751
     108    O26     20.215709   14.712015   21.113008 O.3        1 MOL1        -0.3740
     109    C32     22.269214   13.778805   21.974739 C.3        1 MOL1         0.1003
     110    H52     23.151204   13.200886   21.669235 H          1 MOL1         0.0783
     111    O27     21.623179   13.103855   23.065748 O.3        1 MOL1        -0.5519
     112    H53     20.689493   13.432741   23.110108 H          1 MOL1         0.3769
     113    C33     22.750891   15.184265   22.414337 C.3        1 MOL1         0.1053
     114    H54     21.880840   15.749145   22.775691 H          1 MOL1         0.0783
     115    O28     23.705692   15.037249   23.470885 O.3        1 MOL1        -0.5519
     116    H55     23.337806   14.326108   24.043671 H          1 MOL1         0.3769
     117    C34     23.369409   15.954857   21.216257 C.3        1 MOL1         0.1018
     118    H56     24.345333   15.515236   20.973184 H          1 MOL1         0.0783
     119    C35     22.464165   15.901953   19.957742 C.3        1 MOL1         0.1043
     120    H57     21.568216   16.496528   20.161470 H          1 MOL1         0.0783
     121    O29     22.068305   14.536656   19.687697 O.3        1 MOL1        -0.3740
     122    C36     23.124819   16.497059   18.689006 C.3        1 MOL1         0.0138
     123    H58     23.112515   17.591357   18.771654 H          1 MOL1         0.0794
     124    H59     22.511292   16.231625   17.817918 H          1 MOL1         0.0794
     125    O30     24.471595   16.048048   18.498615 O.3        1 MOL1        -0.5486
     126    H60     25.028892   16.496353   19.170997 H          1 MOL1         0.3769
     127    C1      21.126272   19.920119   18.082966 C.3        1 MOL1        -0.2426
     128    H1      20.797520   20.960700   18.177148 H          1 MOL1         0.0959
     129    H2      22.183023   19.862236   18.373360 H          1 MOL1         0.0959
     130    H3      21.050266   19.645791   17.022812 H          1 MOL1         0.0959
     131    C2      20.251235   18.990253   18.946849 C.3        1 MOL1        -0.1410
     132    H4      20.463742   17.946025   18.683010 H          1 MOL1         0.0948
     133    H5      19.195150   19.158322   18.701078 H          1 MOL1         0.0948
     134    C3      20.480061   19.198568   20.461748 C.3        1 MOL1        -0.1435
     135    H6      21.519549   18.952882   20.710945 H          1 MOL1         0.0948
     136    H7      20.335162   20.253898   20.725358 H          1 MOL1         0.0948
     137    C4      19.520859   18.311288   21.286794 C.3        1 MOL1        -0.1435
     138    H8      19.610011   17.275470   20.945780 H          1 MOL1         0.0948
     139    H9      18.484607   18.610198   21.082823 H          1 MOL1         0.0948
     140    C5      19.781528   18.327861   22.810284 C.3        1 MOL1        -0.1435
     141    H10     19.116659   17.588904   23.274619 H          1 MOL1         0.0948
     142    H11     20.806097   17.986432   23.012744 H          1 MOL1         0.0948
     143    C6      19.548704   19.717072   23.457430 C.3        1 MOL1        -0.1500
     144    H12     18.659093   20.178880   23.013305 H          1 MOL1         0.0948
     145    H13     20.389448   20.377794   23.211797 H          1 MOL1         0.0948
     146    C7      19.365009   19.687441   24.993437 C.3        1 MOL1         0.1162
     147    H14     19.324797   20.724660   25.340082 H          1 MOL1         0.0910
     148    C8      20.531195   18.993201   25.714927 C.3        1 MOL1        -0.2491
     149    H15     21.481825   19.463989   25.452356 H          1 MOL1         0.0959
     150    H16     20.413193   19.071063   26.802371 H          1 MOL1         0.0959
     151    H17     20.596118   17.928694   25.458686 H          1 MOL1         0.0959
     152    N1      18.058021   19.066040   25.395795 N.4        1 MOL1        -0.5987
     153    H18     17.259247   19.576807   24.986722 H          1 MOL1         0.3605
     154    H19     17.936428   19.072798   26.411830 H          1 MOL1         0.3605
     155    H20     17.988112   18.095493   25.074183 H          1 MOL1         0.3605
@<TRIPOS>BOND
    1     1     2    1
    2     1     3    1
    3     1     4    1
    4     4     5    1
    5     4     6    1
    6     6     7    1
    7     4     8    1
    8     8     9    1
    9     8    10    1
   10    10    11    1
   11     8    12    1
   12    12    13    1
   13    12    14    1
   14    14    15    1
   15     1    16    1
   16    14    16    1
   17    14    17    1
   18    17    18    1
   19    17    19    1
   20    17    20    1
   21    20    21    1
   22    22    23    1
   23    22    24    1
   24    22    25    1
   25    25    26    1
   26    25    27    1
   27    27    28    1
   28    25    29    1
   29    29    30    1
   30    29    31    1
   31    31    32    1
   32     3    33    1
   33    29    33    1
   34    33    34    1
   35    33    35    1
   36    35    36    1
   37    22    37    1
   38    35    37    1
   39    35    38    1
   40    38    39    1
   41    38    40    1
   42    38    41    1
   43    41    42    1
   44    43    44    1
   45    43    45    1
   46    43    46    1
   47    46    47    1
   48    46    48    1
   49    48    49    1
   50    46    50    1
   51    50    51    1
   52    50    52    1
   53    52    53    1
   54    24    54    1
   55    50    54    1
   56    54    55    1
   57    54    56    1
   58    56    57    1
   59    43    58    1
   60    56    58    1
   61    56    59    1
   62    59    60    1
   63    59    61    1
   64    59    62    1
   65    62    63    1
   66    64    65    1
   67    64    66    1
   68    64    67    1
   69    67    68    1
   70    67    69    1
   71    69    70    1
   72    67    71    1
   73    71    72    1
   74    71    73    1
   75    73    74    1
   76    45    75    1
   77    71    75    1
   78    75    76    1
   79    75    77    1
   80    77    78    1
   81    64    79    1
   82    77    79    1
   83    77    80    1
   84    80    81    1
   85    80    82    1
   86    80    83    1
   87    83    84    1
   88    85    86    1
   89    85    87    1
   90    85    88    1
   91    88    89    1
   92    88    90    1
   93    90    91    1
   94    88    92    1
   95    92    93    1
   96    92    94    1
   97    94    95    1
   98    66    96    1
   99    92    96    1
  100    96    97    1
  101    96    98    1
  102    98    99    1
  103    85   100    1
  104    98   100    1
  105    98   101    1
  106   101   102    1
  107   101   103    1
  108   101   104    1
  109   104   105    1
  110   106   107    1
  111    12   108    1
  112   106   108    1
  113   106   109    1
  114   109   110    1
  115   109   111    1
  116   111   112    1
  117   109   113    1
  118   113   114    1
  119   113   115    1
  120   115   116    1
  121    87   117    1
  122   113   117    1
  123   117   118    1
  124   117   119    1
  125   119   120    1
  126   106   121    1
  127   119   121    1
  128   119   122    1
  129   122   123    1
  130   122   124    1
  131   122   125    1
  132   125   126    1
  133   127   128    1
  134   127   129    1
  135   127   130    1
  136   127   131    1
  137   131   132    1
  138   131   133    1
  139   131   134    1
  140   134   135    1
  141   134   136    1
  142   134   137    1
  143   137   138    1
  144   137   139    1
  145   137   140    1
  146   140   141    1
  147   140   142    1
  148   140   143    1
  149   143   144    1
  150   143   145    1
  151   143   146    1
  152   146   147    1
  153   146   148    1
  154   148   149    1
  155   148   150    1
  156   148   151    1
  157   146   152    1
  158   152   153    1
  159   152   154    1
  160   152   155    1
@<TRIPOS>SUBSTRUCTURE
       1 MOL1            1 RESIDUE      1      MOL     
       2 MOL1          155 RESIDUE      1      MOL     
@<SCITEGIC>MOL_PROPERTY
feprocess Rank
SciTegic.value.IntegerValue
3

@<SCITEGIC>MOL_PROPERTY
Conf_Id
SciTegic.value.IntegerValue
18

@<SCITEGIC>MOL_PROPERTY
Probability
SciTegic.value.DoubleValue
0.79

@<SCITEGIC>MOL_PROPERTY
G
SciTegic.value.DoubleValue
562.511

@<SCITEGIC>MOL_PROPERTY
E
SciTegic.value.DoubleValue
353.098

@<SCITEGIC>MOL_PROPERTY
-TS
SciTegic.value.DoubleValue
209.413

@<SCITEGIC>MOL_PROPERTY
U+W
SciTegic.value.DoubleValue
216.278

@<SCITEGIC>MOL_PROPERTY
U
SciTegic.value.DoubleValue
298.530

@<SCITEGIC>MOL_PROPERTY
W
SciTegic.value.DoubleValue
-82.252

@<SCITEGIC>MOL_PROPERTY
W(PB)
SciTegic.value.DoubleValue
-88.415

@<SCITEGIC>MOL_PROPERTY
W(SA)
SciTegic.value.DoubleValue
6.163

@<SCITEGIC>MOL_PROPERTY
Valence
SciTegic.value.DoubleValue
149.727

@<SCITEGIC>MOL_PROPERTY
Coulomb
SciTegic.value.DoubleValue
176.958

@<SCITEGIC>MOL_PROPERTY
VdW
SciTegic.value.DoubleValue
-28.155

@<SCITEGIC>MOL_PROPERTY
VdW6
SciTegic.value.DoubleValue
-188.894

@<SCITEGIC>MOL_PROPERTY
VdW12
SciTegic.value.DoubleValue
160.738

@<SCITEGIC>MOL_PROPERTY
Bond
SciTegic.value.DoubleValue
4.604

@<SCITEGIC>MOL_PROPERTY
Angle
SciTegic.value.DoubleValue
12.011

@<SCITEGIC>MOL_PROPERTY
Pdih
SciTegic.value.DoubleValue
133.113

@<SCITEGIC>MOL_PROPERTY
Idih
SciTegic.value.DoubleValue
0.000

@<SCITEGIC>MOL_PROPERTY
Tether
SciTegic.value.DoubleValue
0.000

@<TRIPOS>MOLECULE
CD_guest-s15_fast_vm2_rndm.mol2 : feprocess host+ligand conformer 4
         155         160           2
SMALL
USER_CHARGES
 
@<TRIPOS>ATOM
       1    C1      16.222045   15.203453   20.676323 C.3        1 MOL1         0.2972
       2    H1      15.222887   14.968809   20.287365 H          1 MOL1         0.0751
       3    O1      16.333615   16.584208   21.074877 O.3        1 MOL1        -0.3740
       4    C2      16.533337   14.346742   21.932050 C.3        1 MOL1         0.1003
       5    H2      16.467664   13.290672   21.639812 H          1 MOL1         0.0783
       6    O2      15.583828   14.611474   22.978411 O.3        1 MOL1        -0.5519
       7    H3      15.366142   15.576712   22.945098 H          1 MOL1         0.3769
       8    C3      17.972765   14.618763   22.434524 C.3        1 MOL1         0.1053
       9    H4      18.015643   15.655769   22.784736 H          1 MOL1         0.0783
      10    O3      18.292447   13.732645   23.511952 O.3        1 MOL1        -0.5519
      11    H5      17.477074   13.697247   24.060747 H          1 MOL1         0.3769
      12    C4      18.996508   14.467026   21.284996 C.3        1 MOL1         0.1018
      13    H6      19.065221   13.407584   21.004143 H          1 MOL1         0.0783
      14    C5      18.582192   15.294839   20.042270 C.3        1 MOL1         0.1043
      15    H7      18.609707   16.355819   20.314019 H          1 MOL1         0.0783
      16    O4      17.230393   14.932155   19.675891 O.3        1 MOL1        -0.3740
      17    C6      19.506991   15.118047   18.809802 C.3        1 MOL1         0.0138
      18    H8      20.309936   15.863422   18.869709 H          1 MOL1         0.0794
      19    H9      18.930192   15.345857   17.903549 H          1 MOL1         0.0794
      20    O5      20.078455   13.807438   18.713132 O.3        1 MOL1        -0.5486
      21    H10     20.759907   13.732569   19.421274 H          1 MOL1         0.3769
      22    C7      14.663843   20.320679   20.637376 C.3        1 MOL1         0.2972
      23    H11     14.052799   21.209576   20.434518 H          1 MOL1         0.0751
      24    O6      16.033758   20.675854   20.925029 O.3        1 MOL1        -0.3740
      25    C8      14.073797   19.486560   21.806158 C.3        1 MOL1         0.1003
      26    H12     13.090485   19.123570   21.479631 H          1 MOL1         0.0783
      27    O7      13.904869   20.265125   22.999775 O.3        1 MOL1        -0.5519
      28    H13     14.809513   20.539352   23.294579 H          1 MOL1         0.3769
      29    C9      14.967969   18.255796   22.080923 C.3        1 MOL1         0.1053
      30    H14     15.941316   18.617405   22.439212 H          1 MOL1         0.0783
      31    O8      14.358846   17.426893   23.077005 O.3        1 MOL1        -0.5519
      32    H15     14.033686   18.048644   23.764843 H          1 MOL1         0.3769
      33    C10     15.201826   17.428707   20.793629 C.3        1 MOL1         0.1018
      34    H16     14.292083   16.847459   20.593890 H          1 MOL1         0.0783
      35    C11     15.554094   18.305458   19.556900 C.3        1 MOL1         0.1043
      36    H17     16.588388   18.654166   19.669676 H          1 MOL1         0.0783
      37    O9      14.674145   19.456556   19.481860 O.3        1 MOL1        -0.3740
      38    C12     15.468977   17.543204   18.212649 C.3        1 MOL1         0.0138
      39    H18     16.307437   16.837061   18.156455 H          1 MOL1         0.0794
      40    H19     15.596670   18.263526   17.393579 H          1 MOL1         0.0794
      41    O10     14.229181   16.838778   18.066824 O.3        1 MOL1        -0.5486
      42    H20     14.228292   16.418932   17.179078 H          1 MOL1         0.3769
      43    C13     18.527919   23.748140   22.133538 C.3        1 MOL1         0.2972
      44    H21     18.962001   24.681047   22.514350 H          1 MOL1         0.0751
      45    O11     19.515655   22.933719   21.471772 O.3        1 MOL1        -0.3740
      46    C14     17.905076   22.931253   23.294120 C.3        1 MOL1         0.1003
      47    H22     17.131996   23.561968   23.752156 H          1 MOL1         0.0783
      48    O12     18.886915   22.590340   24.287444 O.3        1 MOL1        -0.5519
      49    H23     19.628914   23.234200   24.192816 H          1 MOL1         0.3769
      50    C15     17.228806   21.644686   22.767475 C.3        1 MOL1         0.1053
      51    H24     18.011248   20.977255   22.391251 H          1 MOL1         0.0783
      52    O13     16.545981   21.013841   23.854137 O.3        1 MOL1        -0.5519
      53    H25     17.167335   21.104406   24.611039 H          1 MOL1         0.3769
      54    C16     16.257956   21.933404   21.595007 C.3        1 MOL1         0.1018
      55    H26     15.330551   22.360087   21.999403 H          1 MOL1         0.0783
      56    C17     16.870396   22.897411   20.539255 C.3        1 MOL1         0.1043
      57    H27     17.642591   22.348036   19.985426 H          1 MOL1         0.0783
      58    O14     17.479790   24.042026   21.186750 O.3        1 MOL1        -0.3740
      59    C18     15.842215   23.410239   19.502483 C.3        1 MOL1         0.0138
      60    H28     15.569284   22.576511   18.841445 H          1 MOL1         0.0794
      61    H29     16.324652   24.175510   18.879760 H          1 MOL1         0.0794
      62    O15     14.665292   23.942110   20.123802 O.3        1 MOL1        -0.5486
      63    H30     14.099486   24.320408   19.415691 H          1 MOL1         0.3769
      64    C19     23.669766   22.836892   21.079894 C.3        1 MOL1         0.2972
      65    H31     24.720908   23.064103   20.861212 H          1 MOL1         0.0751
      66    O16     23.484315   21.461816   21.464725 O.3        1 MOL1        -0.3740
      67    C20     23.162260   23.697758   22.263312 C.3        1 MOL1         0.1003
      68    H32     23.257717   24.751897   21.972038 H          1 MOL1         0.0783
      69    O17     23.953694   23.454781   23.438221 O.3        1 MOL1        -0.5519
      70    H33     24.201423   22.496378   23.429462 H          1 MOL1         0.3769
      71    C21     21.666431   23.411968   22.554559 C.3        1 MOL1         0.1053
      72    H34     21.586878   22.383330   22.926893 H          1 MOL1         0.0783
      73    O18     21.211861   24.319917   23.563749 O.3        1 MOL1        -0.5519
      74    H35     21.952699   24.367152   24.210349 H          1 MOL1         0.3769
      75    C22     20.809946   23.532685   21.260887 C.3        1 MOL1         0.1018
      76    H36     20.718320   24.592031   20.988972 H          1 MOL1         0.0783
      77    C23     21.441740   22.754692   20.075392 C.3        1 MOL1         0.1043
      78    H37     21.371524   21.681916   20.293315 H          1 MOL1         0.0783
      79    O19     22.835162   23.119230   19.935825 O.3        1 MOL1        -0.3740
      80    C24     20.723207   22.984316   18.722288 C.3        1 MOL1         0.0138
      81    H38     19.786959   22.410458   18.723871 H          1 MOL1         0.0794
      82    H39     21.350947   22.575874   17.919334 H          1 MOL1         0.0794
      83    O20     20.439013   24.365690   18.470827 O.3        1 MOL1        -0.5486
      84    H40     19.719726   24.633082   19.082907 H          1 MOL1         0.3769
      85    C25     25.099164   17.657626   21.278786 C.3        1 MOL1         0.2972
      86    H41     25.733861   16.774181   21.132056 H          1 MOL1         0.0751
      87    O21     23.739855   17.292576   21.598000 O.3        1 MOL1        -0.3740
      88    C26     25.648100   18.546316   22.424397 C.3        1 MOL1         0.1003
      89    H42     26.653851   18.875427   22.132365 H          1 MOL1         0.0783
      90    O22     25.732498   17.815416   23.657970 O.3        1 MOL1        -0.5519
      91    H43     24.867920   17.349106   23.789296 H          1 MOL1         0.3769
      92    C27     24.765795   19.805270   22.598668 C.3        1 MOL1         0.1053
      93    H44     23.776978   19.478226   22.943823 H          1 MOL1         0.0783
      94    O23     25.347655   20.677509   23.573178 O.3        1 MOL1        -0.5519
      95    H45     25.624706   20.088597   24.310130 H          1 MOL1         0.3769
      96    C28     24.587100   20.560707   21.258239 C.3        1 MOL1         0.1018
      97    H46     25.520176   21.092648   21.030905 H          1 MOL1         0.0783
      98    C29     24.214876   19.612140   20.083007 C.3        1 MOL1         0.1043
      99    H47     23.178902   19.277736   20.222685 H          1 MOL1         0.0783
     100    O24     25.086329   18.455115   20.076935 O.3        1 MOL1        -0.3740
     101    C30     24.304000   20.285814   18.692725 C.3        1 MOL1         0.0138
     102    H48     23.480062   21.004129   18.597536 H          1 MOL1         0.0794
     103    H49     24.155662   19.518190   17.921547 H          1 MOL1         0.0794
     104    O25     25.556741   20.953617   18.494852 O.3        1 MOL1        -0.5486
     105    H50     25.549215   21.339091   17.591893 H          1 MOL1         0.3769
     106    C31     21.261392   14.000409   22.031971 C.3        1 MOL1         0.2972
     107    H51     20.826844   13.001049   22.164690 H          1 MOL1         0.0751
     108    O26     20.250992   14.987739   21.753891 O.3        1 MOL1        -0.3740
     109    C32     22.004286   14.423953   23.319940 C.3        1 MOL1         0.1003
     110    H52     22.817201   13.705328   23.487069 H          1 MOL1         0.0783
     111    O27     21.113807   14.406146   24.447940 O.3        1 MOL1        -0.5519
     112    H53     20.199056   14.279256   24.093776 H          1 MOL1         0.3769
     113    C33     22.627222   15.826415   23.141364 C.3        1 MOL1         0.1053
     114    H54     21.807457   16.543074   23.023722 H          1 MOL1         0.0783
     115    O28     23.397060   16.154431   24.301322 O.3        1 MOL1        -0.5519
     116    H55     22.851554   15.844003   25.058209 H          1 MOL1         0.3769
     117    C34     23.508656   15.894813   21.870909 C.3        1 MOL1         0.1018
     118    H56     24.442252   15.351992   22.070153 H          1 MOL1         0.0783
     119    C35     22.798766   15.294946   20.623709 C.3        1 MOL1         0.1043
     120    H57     22.007873   15.994006   20.325087 H          1 MOL1         0.0783
     121    O29     22.202101   14.008772   20.937686 O.3        1 MOL1        -0.3740
     122    C36     23.736821   15.113105   19.406654 C.3        1 MOL1         0.0138
     123    H58     23.992998   16.105533   19.011757 H          1 MOL1         0.0794
     124    H59     23.189718   14.579728   18.617639 H          1 MOL1         0.0794
     125    O30     24.933509   14.403849   19.751038 O.3        1 MOL1        -0.5486
     126    H60     25.447905   14.269373   18.925418 H          1 MOL1         0.3769
     127    C1      19.611871   19.187080   20.242558 C.3        1 MOL1        -0.2426
     128    H1      19.076073   20.145485   20.248410 H          1 MOL1         0.0959
     129    H2      20.563929   19.329128   19.715689 H          1 MOL1         0.0959
     130    H3      19.011633   18.474567   19.665382 H          1 MOL1         0.0959
     131    C2      19.845839   18.679834   21.682392 C.3        1 MOL1        -0.1410
     132    H4      20.367815   17.715247   21.651502 H          1 MOL1         0.0948
     133    H5      18.872044   18.511849   22.162106 H          1 MOL1         0.0948
     134    C3      20.676077   19.699816   22.493742 C.3        1 MOL1        -0.1435
     135    H6      21.614898   19.879708   21.962472 H          1 MOL1         0.0948
     136    H7      20.146880   20.656916   22.507258 H          1 MOL1         0.0948
     137    C4      21.015588   19.317281   23.955976 C.3        1 MOL1        -0.1435
     138    H8      21.493460   20.191823   24.419000 H          1 MOL1         0.0948
     139    H9      21.777611   18.529470   23.978018 H          1 MOL1         0.0948
     140    C5      19.798025   18.916010   24.824353 C.3        1 MOL1        -0.1435
     141    H10     19.967421   19.278120   25.846782 H          1 MOL1         0.0948
     142    H11     18.902532   19.434632   24.459923 H          1 MOL1         0.0948
     143    C6      19.586095   17.379314   24.866414 C.3        1 MOL1        -0.1500
     144    H12     20.485600   16.911901   25.286344 H          1 MOL1         0.0948
     145    H13     19.497836   16.985461   23.849066 H          1 MOL1         0.0948
     146    C7      18.367352   16.903684   25.687691 C.3        1 MOL1         0.1162
     147    H14     18.348306   15.810388   25.635392 H          1 MOL1         0.0910
     148    C8      17.041012   17.422782   25.109811 C.3        1 MOL1        -0.2491
     149    H15     16.974498   17.209237   24.038014 H          1 MOL1         0.0959
     150    H16     16.189537   16.933083   25.597780 H          1 MOL1         0.0959
     151    H17     16.929994   18.504504   25.248021 H          1 MOL1         0.0959
     152    N1      18.490823   17.253201   27.144169 N.4        1 MOL1        -0.5987
     153    H18     19.349029   16.867911   27.548294 H          1 MOL1         0.3605
     154    H19     17.702392   16.885538   27.683690 H          1 MOL1         0.3605
     155    H20     18.511894   18.267070   27.278086 H          1 MOL1         0.3605
@<TRIPOS>BOND
    1     1     2    1
    2     1     3    1
    3     1     4    1
    4     4     5    1
    5     4     6    1
    6     6     7    1
    7     4     8    1
    8     8     9    1
    9     8    10    1
   10    10    11    1
   11     8    12    1
   12    12    13    1
   13    12    14    1
   14    14    15    1
   15     1    16    1
   16    14    16    1
   17    14    17    1
   18    17    18    1
   19    17    19    1
   20    17    20    1
   21    20    21    1
   22    22    23    1
   23    22    24    1
   24    22    25    1
   25    25    26    1
   26    25    27    1
   27    27    28    1
   28    25    29    1
   29    29    30    1
   30    29    31    1
   31    31    32    1
   32     3    33    1
   33    29    33    1
   34    33    34    1
   35    33    35    1
   36    35    36    1
   37    22    37    1
   38    35    37    1
   39    35    38    1
   40    38    39    1
   41    38    40    1
   42    38    41    1
   43    41    42    1
   44    43    44    1
   45    43    45    1
   46    43    46    1
   47    46    47    1
   48    46    48    1
   49    48    49    1
   50    46    50    1
   51    50    51    1
   52    50    52    1
   53    52    53    1
   54    24    54    1
   55    50    54    1
   56    54    55    1
   57    54    56    1
   58    56    57    1
   59    43    58    1
   60    56    58    1
   61    56    59    1
   62    59    60    1
   63    59    61    1
   64    59    62    1
   65    62    63    1
   66    64    65    1
   67    64    66    1
   68    64    67    1
   69    67    68    1
   70    67    69    1
   71    69    70    1
   72    67    71    1
   73    71    72    1
   74    71    73    1
   75    73    74    1
   76    45    75    1
   77    71    75    1
   78    75    76    1
   79    75    77    1
   80    77    78    1
   81    64    79    1
   82    77    79    1
   83    77    80    1
   84    80    81    1
   85    80    82    1
   86    80    83    1
   87    83    84    1
   88    85    86    1
   89    85    87    1
   90    85    88    1
   91    88    89    1
   92    88    90    1
   93    90    91    1
   94    88    92    1
   95    92    93    1
   96    92    94    1
   97    94    95    1
   98    66    96    1
   99    92    96    1
  100    96    97    1
  101    96    98    1
  102    98    99    1
  103    85   100    1
  104    98   100    1
  105    98   101    1
  106   101   102    1
  107   101   103    1
  108   101   104    1
  109   104   105    1
  110   106   107    1
  111    12   108    1
  112   106   108    1
  113   106   109    1
  114   109   110    1
  115   109   111    1
  116   111   112    1
  117   109   113    1
  118   113   114    1
  119   113   115    1
  120   115   116    1
  121    87   117    1
  122   113   117    1
  123   117   118    1
  124   117   119    1
  125   119   120    1
  126   106   121    1
  127   119   121    1
  128   119   122    1
  129   122   123    1
  130   122   124    1
  131   122   125    1
  132   125   126    1
  133   127   128    1
  134   127   129    1
  135   127   130    1
  136   127   131    1
  137   131   132    1
  138   131   133    1
  139   131   134    1
  140   134   135    1
  141   134   136    1
  142   134   137    1
  143   137   138    1
  144   137   139    1
  145   137   140    1
  146   140   141    1
  147   140   142    1
  148   140   143    1
  149   143   144    1
  150   143   145    1
  151   143   146    1
  152   146   147    1
  153   146   148    1
  154   148   149    1
  155   148   150    1
  156   148   151    1
  157   146   152    1
  158   152   153    1
  159   152   154    1
  160   152   155    1
@<TRIPOS>SUBSTRUCTURE
       1 MOL1            1 RESIDUE      1      MOL     
       2 MOL1          155 RESIDUE      1      MOL     
@<SCITEGIC>MOL_PROPERTY
feprocess Rank
SciTegic.value.IntegerValue
4

@<SCITEGIC>MOL_PROPERTY
Conf_Id
SciTegic.value.IntegerValue
58

@<SCITEGIC>MOL_PROPERTY
Probability
SciTegic.value.DoubleValue
0.35

@<SCITEGIC>MOL_PROPERTY
G
SciTegic.value.DoubleValue
563.003

@<SCITEGIC>MOL_PROPERTY
E
SciTegic.value.DoubleValue
353.816

@<SCITEGIC>MOL_PROPERTY
-TS
SciTegic.value.DoubleValue
209.187

@<SCITEGIC>MOL_PROPERTY
U+W
SciTegic.value.DoubleValue
216.997

@<SCITEGIC>MOL_PROPERTY
U
SciTegic.value.DoubleValue
306.309

@<SCITEGIC>MOL_PROPERTY
W
SciTegic.value.DoubleValue
-89.313

@<SCITEGIC>MOL_PROPERTY
W(PB)
SciTegic.value.DoubleValue
-95.484

@<SCITEGIC>MOL_PROPERTY
W(SA)
SciTegic.value.DoubleValue
6.171

@<SCITEGIC>MOL_PROPERTY
Valence
SciTegic.value.DoubleValue
151.963

@<SCITEGIC>MOL_PROPERTY
Coulomb
SciTegic.value.DoubleValue
183.696

@<SCITEGIC>MOL_PROPERTY
VdW
SciTegic.value.DoubleValue
-29.351

@<SCITEGIC>MOL_PROPERTY
VdW6
SciTegic.value.DoubleValue
-188.962

@<SCITEGIC>MOL_PROPERTY
VdW12
SciTegic.value.DoubleValue
159.611

@<SCITEGIC>MOL_PROPERTY
Bond
SciTegic.value.DoubleValue
4.654

@<SCITEGIC>MOL_PROPERTY
Angle
SciTegic.value.DoubleValue
12.988

@<SCITEGIC>MOL_PROPERTY
Pdih
SciTegic.value.DoubleValue
134.321

@<SCITEGIC>MOL_PROPERTY
Idih
SciTegic.value.DoubleValue
0.000

@<SCITEGIC>MOL_PROPERTY
Tether
SciTegic.value.DoubleValue
0.000

@<TRIPOS>MOLECULE
CD_guest-s15_fast_vm2_rndm.mol2 : feprocess host+ligand conformer 5
         155         160           2
SMALL
USER_CHARGES
 
@<TRIPOS>ATOM
       1    C1      16.137485   15.119277   20.828704 C.3        1 MOL1         0.2972
       2    H1      15.064338   15.021404   20.619586 H          1 MOL1         0.0751
       3    O1      16.487594   16.466129   21.211816 O.3        1 MOL1        -0.3740
       4    C2      16.577608   14.157643   21.962628 C.3        1 MOL1         0.1003
       5    H2      16.398253   13.133288   21.610919 H          1 MOL1         0.0783
       6    O2      15.824063   14.376601   23.164899 O.3        1 MOL1        -0.5519
       7    H3      15.899208   15.338120   23.392149 H          1 MOL1         0.3769
       8    C3      18.093886   14.311173   22.233432 C.3        1 MOL1         0.1053
       9    H4      18.270661   15.320569   22.629704 H          1 MOL1         0.0783
      10    O3      18.514009   13.337629   23.194377 O.3        1 MOL1        -0.5519
      11    H5      17.820558   13.350541   23.891487 H          1 MOL1         0.3769
      12    C4      18.915263   14.149468   20.929626 C.3        1 MOL1         0.1018
      13    H6      18.935057   13.084658   20.664100 H          1 MOL1         0.0783
      14    C5      18.333365   14.977854   19.747768 C.3        1 MOL1         0.1043
      15    H7      18.519633   16.039555   19.942592 H          1 MOL1         0.0783
      16    O4      16.902688   14.771849   19.653771 O.3        1 MOL1        -0.3740
      17    C6      18.973395   14.659641   18.374133 C.3        1 MOL1         0.0138
      18    H8      19.976384   15.105160   18.340697 H          1 MOL1         0.0794
      19    H9      18.377145   15.150163   17.593319 H          1 MOL1         0.0794
      20    O5      19.059012   13.253822   18.113461 O.3        1 MOL1        -0.5486
      21    H10     19.913286   12.938074   18.477423 H          1 MOL1         0.3769
      22    C7      14.956623   20.220777   21.950042 C.3        1 MOL1         0.2972
      23    H11     14.341093   21.104558   22.162783 H          1 MOL1         0.0751
      24    O6      16.303184   20.585678   21.597043 O.3        1 MOL1        -0.3740
      25    C8      15.012999   19.307027   23.196427 C.3        1 MOL1         0.1003
      26    H12     13.984468   18.995681   23.421275 H          1 MOL1         0.0783
      27    O7      15.557224   20.017210   24.322580 O.3        1 MOL1        -0.5519
      28    H13     15.575687   20.975546   24.075361 H          1 MOL1         0.3769
      29    C9      15.855522   18.043667   22.907739 C.3        1 MOL1         0.1053
      30    H14     16.894682   18.362273   22.775505 H          1 MOL1         0.0783
      31    O8      15.768952   17.154193   24.025203 O.3        1 MOL1        -0.5519
      32    H15     15.656625   17.735037   24.809038 H          1 MOL1         0.3769
      33    C10     15.402484   17.328548   21.608671 C.3        1 MOL1         0.1018
      34    H16     14.483571   16.766512   21.822483 H          1 MOL1         0.0783
      35    C11     15.167255   18.312750   20.426847 C.3        1 MOL1         0.1043
      36    H17     16.150145   18.650690   20.076646 H          1 MOL1         0.0783
      37    O9      14.398608   19.465756   20.855182 O.3        1 MOL1        -0.3740
      38    C12     14.450075   17.666511   19.217533 C.3        1 MOL1         0.0138
      39    H18     15.143525   16.964222   18.735245 H          1 MOL1         0.0794
      40    H19     14.219740   18.451795   18.484994 H          1 MOL1         0.0794
      41    O10     13.253979   16.978749   19.604553 O.3        1 MOL1        -0.5486
      42    H20     12.815138   16.660205   18.785729 H          1 MOL1         0.3769
      43    C13     18.508507   24.034459   20.805316 C.3        1 MOL1         0.2972
      44    H21     18.824051   25.029262   20.465320 H          1 MOL1         0.0751
      45    O11     19.622116   23.252932   21.283682 O.3        1 MOL1        -0.3740
      46    C14     17.504475   24.156938   21.981487 C.3        1 MOL1         0.1003
      47    H22     16.644743   24.739812   21.626309 H          1 MOL1         0.0783
      48    O12     18.113370   24.832742   23.094387 O.3        1 MOL1        -0.5519
      49    H23     19.042803   24.499937   23.165940 H          1 MOL1         0.3769
      50    C15     16.993949   22.760583   22.417153 C.3        1 MOL1         0.1053
      51    H24     17.840639   22.221741   22.857583 H          1 MOL1         0.0783
      52    O13     15.957024   22.903915   23.394699 O.3        1 MOL1        -0.5519
      53    H25     16.283992   23.596267   24.012106 H          1 MOL1         0.3769
      54    C16     16.479386   21.954533   21.196714 C.3        1 MOL1         0.1018
      55    H26     15.539127   22.402222   20.848601 H          1 MOL1         0.0783
      56    C17     17.495389   21.950486   20.027072 C.3        1 MOL1         0.1043
      57    H27     18.384928   21.393045   20.342755 H          1 MOL1         0.0783
      58    O14     17.866925   23.315198   19.728226 O.3        1 MOL1        -0.3740
      59    C18     16.969604   21.272942   18.734687 C.3        1 MOL1         0.0138
      60    H28     17.167368   20.196802   18.803916 H          1 MOL1         0.0794
      61    H29     17.547057   21.649488   17.879918 H          1 MOL1         0.0794
      62    O15     15.568576   21.480696   18.516169 O.3        1 MOL1        -0.5486
      63    H30     15.085777   20.972073   19.206622 H          1 MOL1         0.3769
      64    C19     23.716821   22.888875   21.059449 C.3        1 MOL1         0.2972
      65    H31     24.801422   22.989850   20.924092 H          1 MOL1         0.0751
      66    O16     23.331664   21.507943   21.246582 O.3        1 MOL1        -0.3740
      67    C20     23.212942   23.751473   22.247686 C.3        1 MOL1         0.1003
      68    H32     23.377046   24.802206   21.974793 H          1 MOL1         0.0783
      69    O17     23.928563   23.479804   23.460401 O.3        1 MOL1        -0.5519
      70    H33     23.765758   22.530114   23.686897 H          1 MOL1         0.3769
      71    C21     21.691123   23.545425   22.436943 C.3        1 MOL1         0.1053
      72    H34     21.518485   22.497345   22.715228 H          1 MOL1         0.0783
      73    O18     21.203766   24.405437   23.472800 O.3        1 MOL1        -0.5519
      74    H35     21.863825   24.334962   24.197725 H          1 MOL1         0.3769
      75    C22     20.928693   23.837253   21.120658 C.3        1 MOL1         0.1018
      76    H36     20.878253   24.926937   20.996050 H          1 MOL1         0.0783
      77    C23     21.592662   23.189510   19.869794 C.3        1 MOL1         0.1043
      78    H37     21.380074   22.114772   19.897309 H          1 MOL1         0.0783
      79    O19     23.030122   23.379208   19.890194 O.3        1 MOL1        -0.3740
      80    C24     21.058610   23.738481   18.524524 C.3        1 MOL1         0.0138
      81    H38     20.041426   23.358164   18.367160 H          1 MOL1         0.0794
      82    H39     21.681722   23.339820   17.712763 H          1 MOL1         0.0794
      83    O20     21.053266   25.171148   18.488617 O.3        1 MOL1        -0.5486
      84    H40     20.755702   25.445736   17.593985 H          1 MOL1         0.3769
      85    C25     24.706819   17.731513   22.263966 C.3        1 MOL1         0.2972
      86    H41     25.295600   16.868743   22.601131 H          1 MOL1         0.0751
      87    O21     23.487591   17.317690   21.616307 O.3        1 MOL1        -0.3740
      88    C26     24.360088   18.639015   23.470463 C.3        1 MOL1         0.1003
      89    H42     25.312170   18.956659   23.915434 H          1 MOL1         0.0783
      90    O22     23.586746   17.940701   24.460478 O.3        1 MOL1        -0.5519
      91    H43     23.669715   16.975514   24.266575 H          1 MOL1         0.3769
      92    C27     23.595657   19.901697   23.019176 C.3        1 MOL1         0.1053
      93    H44     22.604075   19.590705   22.672987 H          1 MOL1         0.0783
      94    O23     23.461258   20.762633   24.149561 O.3        1 MOL1        -0.5519
      95    H45     23.247760   20.150271   24.889383 H          1 MOL1         0.3769
      96    C28     24.306447   20.633417   21.853277 C.3        1 MOL1         0.1018
      97    H46     25.164874   21.187611   22.255766 H          1 MOL1         0.0783
      98    C29     24.780672   19.654077   20.742056 C.3        1 MOL1         0.1043
      99    H47     23.894167   19.297397   20.202635 H          1 MOL1         0.0783
     100    O24     25.468129   18.516357   21.322020 O.3        1 MOL1        -0.3740
     101    C30     25.713932   20.315259   19.699824 C.3        1 MOL1         0.0138
     102    H48     25.118744   21.010104   19.091794 H          1 MOL1         0.0794
     103    H49     26.095476   19.536111   19.026388 H          1 MOL1         0.0794
     104    O25     26.800279   21.018631   20.315527 O.3        1 MOL1        -0.5486
     105    H50     27.387706   21.345504   19.599542 H          1 MOL1         0.3769
     106    C31     21.349370   13.806386   20.942649 C.3        1 MOL1         0.2972
     107    H51     21.034336   12.787880   20.683596 H          1 MOL1         0.0751
     108    O26     20.226658   14.663703   21.222778 O.3        1 MOL1        -0.3740
     109    C32     22.238978   13.785512   22.209909 C.3        1 MOL1         0.1003
     110    H52     23.123521   13.176884   21.980978 H          1 MOL1         0.0783
     111    O27     21.536317   13.197971   23.316847 O.3        1 MOL1        -0.5519
     112    H53     20.583930   13.456206   23.232507 H          1 MOL1         0.3769
     113    C33     22.722104   15.211842   22.571657 C.3        1 MOL1         0.1053
     114    H54     21.849038   15.804080   22.878530 H          1 MOL1         0.0783
     115    O28     23.651688   15.119354   23.656402 O.3        1 MOL1        -0.5519
     116    H55     23.258517   14.454110   24.266369 H          1 MOL1         0.3769
     117    C34     23.374062   15.906456   21.345369 C.3        1 MOL1         0.1018
     118    H56     24.355265   15.452188   21.156273 H          1 MOL1         0.0783
     119    C35     22.504193   15.775116   20.067047 C.3        1 MOL1         0.1043
     120    H57     21.604115   16.379636   20.211638 H          1 MOL1         0.0783
     121    O29     22.114829   14.393629   19.868101 O.3        1 MOL1        -0.3740
     122    C36     23.193873   16.300337   18.783159 C.3        1 MOL1         0.0138
     123    H58     23.163557   17.397819   18.796567 H          1 MOL1         0.0794
     124    H59     22.610443   15.971701   17.912953 H          1 MOL1         0.0794
     125    O30     24.551482   15.860769   18.660751 O.3        1 MOL1        -0.5486
     126    H60     25.082330   16.360606   19.318230 H          1 MOL1         0.3769
     127    C1      20.949313   19.759211   18.161052 C.3        1 MOL1        -0.2426
     128    H1      20.584384   20.789194   18.243012 H          1 MOL1         0.0959
     129    H2      22.023382   19.752743   18.387784 H          1 MOL1         0.0959
     130    H3      20.821290   19.445085   17.117082 H          1 MOL1         0.0959
     131    C2      20.170008   18.825067   19.107942 C.3        1 MOL1        -0.1410
     132    H4      20.434119   17.783792   18.884849 H          1 MOL1         0.0948
     133    H5      19.095334   18.919005   18.905626 H          1 MOL1         0.0948
     134    C3      20.454214   19.129622   20.596670 C.3        1 MOL1        -0.1435
     135    H6      21.519484   18.972292   20.803271 H          1 MOL1         0.0948
     136    H7      20.244429   20.185509   20.806964 H          1 MOL1         0.0948
     137    C4      19.605122   18.224707   21.517885 C.3        1 MOL1        -0.1435
     138    H8      19.833662   17.179064   21.297119 H          1 MOL1         0.0948
     139    H9      18.543028   18.363466   21.279748 H          1 MOL1         0.0948
     140    C5      19.828573   18.440673   23.032081 C.3        1 MOL1        -0.1435
     141    H10     19.242533   17.681405   23.565523 H          1 MOL1         0.0948
     142    H11     20.879325   18.246527   23.284879 H          1 MOL1         0.0948
     143    C6      19.412180   19.856373   23.507843 C.3        1 MOL1        -0.1500
     144    H12     18.472820   20.129654   23.016849 H          1 MOL1         0.0948
     145    H13     20.157014   20.590342   23.174981 H          1 MOL1         0.0948
     146    C7      19.211017   19.998699   25.034101 C.3        1 MOL1         0.1162
     147    H14     18.931059   21.037741   25.233480 H          1 MOL1         0.0910
     148    C8      20.496815   19.705213   25.821649 C.3        1 MOL1        -0.2491
     149    H15     21.285627   20.404815   25.529453 H          1 MOL1         0.0959
     150    H16     20.328254   19.833007   26.897696 H          1 MOL1         0.0959
     151    H17     20.857553   18.682865   25.654308 H          1 MOL1         0.0959
     152    N1      18.067920   19.163217   25.537628 N.4        1 MOL1        -0.5987
     153    H18     17.183510   19.441565   25.084029 H          1 MOL1         0.3605
     154    H19     17.938904   19.276315   26.546450 H          1 MOL1         0.3605
     155    H20     18.217608   18.169329   25.347077 H          1 MOL1         0.3605
@<TRIPOS>BOND
    1     1     2    1
    2     1     3    1
    3     1     4    1
    4     4     5    1
    5     4     6    1
    6     6     7    1
    7     4     8    1
    8     8     9    1
    9     8    10    1
   10    10    11    1
   11     8    12    1
   12    12    13    1
   13    12    14    1
   14    14    15    1
   15     1    16    1
   16    14    16    1
   17    14    17    1
   18    17    18    1
   19    17    19    1
   20    17    20    1
   21    20    21    1
   22    22    23    1
   23    22    24    1
   24    22    25    1
   25    25    26    1
   26    25    27    1
   27    27    28    1
   28    25    29    1
   29    29    30    1
   30    29    31    1
   31    31    32    1
   32     3    33    1
   33    29    33    1
   34    33    34    1
   35    33    35    1
   36    35    36    1
   37    22    37    1
   38    35    37    1
   39    35    38    1
   40    38    39    1
   41    38    40    1
   42    38    41    1
   43    41    42    1
   44    43    44    1
   45    43    45    1
   46    43    46    1
   47    46    47    1
   48    46    48    1
   49    48    49    1
   50    46    50    1
   51    50    51    1
   52    50    52    1
   53    52    53    1
   54    24    54    1
   55    50    54    1
   56    54    55    1
   57    54    56    1
   58    56    57    1
   59    43    58    1
   60    56    58    1
   61    56    59    1
   62    59    60    1
   63    59    61    1
   64    59    62    1
   65    62    63    1
   66    64    65    1
   67    64    66    1
   68    64    67    1
   69    67    68    1
   70    67    69    1
   71    69    70    1
   72    67    71    1
   73    71    72    1
   74    71    73    1
   75    73    74    1
   76    45    75    1
   77    71    75    1
   78    75    76    1
   79    75    77    1
   80    77    78    1
   81    64    79    1
   82    77    79    1
   83    77    80    1
   84    80    81    1
   85    80    82    1
   86    80    83    1
   87    83    84    1
   88    85    86    1
   89    85    87    1
   90    85    88    1
   91    88    89    1
   92    88    90    1
   93    90    91    1
   94    88    92    1
   95    92    93    1
   96    92    94    1
   97    94    95    1
   98    66    96    1
   99    92    96    1
  100    96    97    1
  101    96    98    1
  102    98    99    1
  103    85   100    1
  104    98   100    1
  105    98   101    1
  106   101   102    1
  107   101   103    1
  108   101   104    1
  109   104   105    1
  110   106   107    1
  111    12   108    1
  112   106   108    1
  113   106   109    1
  114   109   110    1
  115   109   111    1
  116   111   112    1
  117   109   113    1
  118   113   114    1
  119   113   115    1
  120   115   116    1
  121    87   117    1
  122   113   117    1
  123   117   118    1
  124   117   119    1
  125   119   120    1
  126   106   121    1
  127   119   121    1
  128   119   122    1
  129   122   123    1
  130   122   124    1
  131   122   125    1
  132   125   126    1
  133   127   128    1
  134   127   129    1
  135   127   130    1
  136   127   131    1
  137   131   132    1
  138   131   133    1
  139   131   134    1
  140   134   135    1
  141   134   136    1
  142   134   137    1
  143   137   138    1
  144   137   139    1
  145   137   140    1
  146   140   141    1
  147   140   142    1
  148   140   143    1
  149   143   144    1
  150   143   145    1
  151   143   146    1
  152   146   147    1
  153   146   148    1
  154   148   149    1
  155   148   150    1
  156   148   151    1
  157   146   152    1
  158   152   153    1
  159   152   154    1
  160   152   155    1
@<TRIPOS>SUBSTRUCTURE
       1 MOL1            1 RESIDUE      1      MOL     
       2 MOL1          155 RESIDUE      1      MOL     
@<SCITEGIC>MOL_PROPERTY
feprocess Rank
SciTegic.value.IntegerValue
5

@<SCITEGIC>MOL_PROPERTY
Conf_Id
SciTegic.value.IntegerValue
158

@<SCITEGIC>MOL_PROPERTY
Probability
SciTegic.value.DoubleValue
0.31

@<SCITEGIC>MOL_PROPERTY
G
SciTegic.value.DoubleValue
563.068

@<SCITEGIC>MOL_PROPERTY
E
SciTegic.value.DoubleValue
355.150

@<SCITEGIC>MOL_PROPERTY
-TS
SciTegic.value.DoubleValue
207.918

@<SCITEGIC>MOL_PROPERTY
U+W
SciTegic.value.DoubleValue
218.331

@<SCITEGIC>MOL_PROPERTY
U
SciTegic.value.DoubleValue
302.251

@<SCITEGIC>MOL_PROPERTY
W
SciTegic.value.DoubleValue
-83.920

@<SCITEGIC>MOL_PROPERTY
W(PB)
SciTegic.value.DoubleValue
-90.027

@<SCITEGIC>MOL_PROPERTY
W(SA)
SciTegic.value.DoubleValue
6.107

@<SCITEGIC>MOL_PROPERTY
Valence
SciTegic.value.DoubleValue
150.483

@<SCITEGIC>MOL_PROPERTY
Coulomb
SciTegic.value.DoubleValue
180.964

@<SCITEGIC>MOL_PROPERTY
VdW
SciTegic.value.DoubleValue
-29.195

@<SCITEGIC>MOL_PROPERTY
VdW6
SciTegic.value.DoubleValue
-189.215

@<SCITEGIC>MOL_PROPERTY
VdW12
SciTegic.value.DoubleValue
160.020

@<SCITEGIC>MOL_PROPERTY
Bond
SciTegic.value.DoubleValue
4.605

@<SCITEGIC>MOL_PROPERTY
Angle
SciTegic.value.DoubleValue
12.287

@<SCITEGIC>MOL_PROPERTY
Pdih
SciTegic.value.DoubleValue
133.590

@<SCITEGIC>MOL_PROPERTY
Idih
SciTegic.value.DoubleValue
0.000

@<SCITEGIC>MOL_PROPERTY
Tether
SciTegic.value.DoubleValue
0.000

@<TRIPOS>MOLECULE
CD_guest-s15_fast_vm2_rndm.mol2 : feprocess host+ligand conformer 6
         155         160           2
SMALL
USER_CHARGES
 
@<TRIPOS>ATOM
       1    C1      16.259188   15.346046   22.006190 C.3        1 MOL1         0.2972
       2    H1      15.232344   15.185693   22.359072 H          1 MOL1         0.0751
       3    O1      16.395101   16.616256   21.334457 O.3        1 MOL1        -0.3740
       4    C2      17.258011   15.265516   23.192755 C.3        1 MOL1         0.1003
       5    H2      17.161454   14.261593   23.626511 H          1 MOL1         0.0783
       6    O2      16.983379   16.243092   24.207937 O.3        1 MOL1        -0.5519
       7    H3      16.042932   16.521828   24.098501 H          1 MOL1         0.3769
       8    C3      18.709647   15.438719   22.700953 C.3        1 MOL1         0.1053
       9    H4      18.805741   16.462642   22.326492 H          1 MOL1         0.0783
      10    O3      19.596355   15.243675   23.805958 O.3        1 MOL1        -0.5519
      11    H5      19.165423   15.725851   24.547787 H          1 MOL1         0.3769
      12    C4      19.046970   14.468030   21.542313 C.3        1 MOL1         0.1018
      13    H6      19.174736   13.458463   21.954559 H          1 MOL1         0.0783
      14    C5      17.937693   14.453481   20.452016 C.3        1 MOL1         0.1043
      15    H7      17.980826   15.406532   19.909062 H          1 MOL1         0.0783
      16    O4      16.628839   14.315698   21.064581 O.3        1 MOL1        -0.3740
      17    C6      18.112222   13.324364   19.408398 C.3        1 MOL1         0.0138
      18    H8      18.975159   13.567486   18.773713 H          1 MOL1         0.0794
      19    H9      17.225545   13.306272   18.760598 H          1 MOL1         0.0794
      20    O5      18.307054   12.044375   20.022820 O.3        1 MOL1        -0.5486
      21    H10     18.325577   11.370411   19.308682 H          1 MOL1         0.3769
      22    C7      14.612341   20.301387   21.052668 C.3        1 MOL1         0.2972
      23    H11     13.967412   21.179355   20.918817 H          1 MOL1         0.0751
      24    O6      15.992151   20.673240   21.246011 O.3        1 MOL1        -0.3740
      25    C8      14.151584   19.504234   22.291741 C.3        1 MOL1         0.1003
      26    H12     13.123275   19.167626   22.105650 H          1 MOL1         0.0783
      27    O7      14.176801   20.336320   23.462802 O.3        1 MOL1        -0.5519
      28    H13     14.832356   21.057137   23.292460 H          1 MOL1         0.3769
      29    C9      15.035673   18.255292   22.502979 C.3        1 MOL1         0.1053
      30    H14     16.030365   18.604025   22.801882 H          1 MOL1         0.0783
      31    O8      14.459757   17.465663   23.548951 O.3        1 MOL1        -0.5519
      32    H15     14.148576   18.121721   24.213965 H          1 MOL1         0.3769
      33    C10     15.198761   17.415498   21.205934 C.3        1 MOL1         0.1018
      34    H16     14.308257   16.789694   21.067300 H          1 MOL1         0.0783
      35    C11     15.417347   18.282976   19.933505 C.3        1 MOL1         0.1043
      36    H17     16.451714   18.642877   19.954071 H          1 MOL1         0.0783
      37    O9      14.529203   19.428212   19.909483 O.3        1 MOL1        -0.3740
      38    C12     15.239550   17.492289   18.614069 C.3        1 MOL1         0.0138
      39    H18     16.046745   16.751504   18.536177 H          1 MOL1         0.0794
      40    H19     15.354000   18.189051   17.773061 H          1 MOL1         0.0794
      41    O10     13.970058   16.833647   18.531805 O.3        1 MOL1        -0.5486
      42    H20     14.000987   16.047992   19.118007 H          1 MOL1         0.3769
      43    C13     18.581479   23.891108   20.618641 C.3        1 MOL1         0.2972
      44    H21     19.027190   24.843945   20.305582 H          1 MOL1         0.0751
      45    O11     19.579490   22.986728   21.132289 O.3        1 MOL1        -0.3740
      46    C14     17.476960   24.112103   21.691907 C.3        1 MOL1         0.1003
      47    H22     16.707056   24.747242   21.234802 H          1 MOL1         0.0783
      48    O12     17.986133   24.770677   22.861417 O.3        1 MOL1        -0.5519
      49    H23     18.686019   24.184889   23.244634 H          1 MOL1         0.3769
      50    C15     16.814060   22.768248   22.080635 C.3        1 MOL1         0.1053
      51    H24     17.565586   22.157233   22.594067 H          1 MOL1         0.0783
      52    O13     15.706500   23.003418   22.956597 O.3        1 MOL1        -0.5519
      53    H25     16.024770   23.674635   23.600484 H          1 MOL1         0.3769
      54    C16     16.336148   22.004808   20.822230 C.3        1 MOL1         0.1018
      55    H26     15.475454   22.541606   20.401922 H          1 MOL1         0.0783
      56    C17     17.446449   21.906517   19.741534 C.3        1 MOL1         0.1043
      57    H27     18.250718   21.268421   20.129188 H          1 MOL1         0.0783
      58    O14     17.964482   23.236431   19.487041 O.3        1 MOL1        -0.3740
      59    C18     16.990985   21.286891   18.395106 C.3        1 MOL1         0.0138
      60    H28     17.112222   20.199521   18.455362 H          1 MOL1         0.0794
      61    H29     17.665852   21.637910   17.603077 H          1 MOL1         0.0794
      62    O15     15.633797   21.594222   18.057032 O.3        1 MOL1        -0.5486
      63    H30     15.062891   20.974465   18.567461 H          1 MOL1         0.3769
      64    C19     23.454193   22.591587   22.421434 C.3        1 MOL1         0.2972
      65    H31     24.470309   22.715834   22.817444 H          1 MOL1         0.0751
      66    O16     23.279721   21.294651   21.814318 O.3        1 MOL1        -0.3740
      67    C20     22.421690   22.779423   23.562977 C.3        1 MOL1         0.1003
      68    H32     22.592888   23.780107   23.980803 H          1 MOL1         0.0783
      69    O17     22.582126   21.796752   24.601389 O.3        1 MOL1        -0.5519
      70    H33     23.446825   21.343097   24.442327 H          1 MOL1         0.3769
      71    C21     20.971745   22.718438   23.037210 C.3        1 MOL1         0.1053
      72    H34     20.770401   21.674462   22.778689 H          1 MOL1         0.0783
      73    O18     20.082018   23.141538   24.079017 O.3        1 MOL1        -0.5519
      74    H35     20.637990   23.162652   24.890452 H          1 MOL1         0.3769
      75    C22     20.739198   23.565250   21.762347 C.3        1 MOL1         0.1018
      76    H36     20.576056   24.610540   22.056112 H          1 MOL1         0.0783
      77    C23     21.908230   23.471826   20.740842 C.3        1 MOL1         0.1043
      78    H37     21.854486   22.490832   20.251086 H          1 MOL1         0.0783
      79    O19     23.182764   23.592401   21.419165 O.3        1 MOL1        -0.3740
      80    C24     21.844228   24.539282   19.622173 C.3        1 MOL1         0.0138
      81    H38     21.019855   24.283059   18.943117 H          1 MOL1         0.0794
      82    H39     22.773592   24.489967   19.038973 H          1 MOL1         0.0794
      83    O20     21.652128   25.860798   20.142044 O.3        1 MOL1        -0.5486
      84    H40     21.709569   26.488956   19.389181 H          1 MOL1         0.3769
      85    C25     25.185636   17.700859   21.185912 C.3        1 MOL1         0.2972
      86    H41     25.866705   16.865230   20.981325 H          1 MOL1         0.0751
      87    O21     23.806261   17.274445   21.243681 O.3        1 MOL1        -0.3740
      88    C26     25.548540   18.376286   22.531450 C.3        1 MOL1         0.1003
      89    H42     26.553538   18.804768   22.422917 H          1 MOL1         0.0783
      90    O22     25.559882   17.430797   23.611532 O.3        1 MOL1        -0.5519
      91    H43     24.833571   16.778122   23.443881 H          1 MOL1         0.3769
      92    C27     24.570210   19.534727   22.831450 C.3        1 MOL1         0.1053
      93    H44     23.572403   19.103962   22.987193 H          1 MOL1         0.0783
      94    O23     24.992261   20.213074   24.019637 O.3        1 MOL1        -0.5519
      95    H45     25.262532   19.493501   24.634541 H          1 MOL1         0.3769
      96    C28     24.491377   20.528830   21.643034 C.3        1 MOL1         0.1018
      97    H46     25.382612   21.169984   21.656272 H          1 MOL1         0.0783
      98    C29     24.405395   19.835059   20.251643 C.3        1 MOL1         0.1043
      99    H47     23.386290   19.468939   20.106059 H          1 MOL1         0.0783
     100    O24     25.316535   18.710983   20.164679 O.3        1 MOL1        -0.3740
     101    C30     24.704423   20.800197   19.079972 C.3        1 MOL1         0.0138
     102    H48     23.910953   21.558741   19.044158 H          1 MOL1         0.0794
     103    H49     24.661542   20.234298   18.139817 H          1 MOL1         0.0794
     104    O25     25.979881   21.439430   19.217533 O.3        1 MOL1        -0.5486
     105    H50     26.114825   22.009603   18.429681 H          1 MOL1         0.3769
     106    C31     21.296369   13.994000   20.660713 C.3        1 MOL1         0.2972
     107    H51     20.872896   13.013728   20.407365 H          1 MOL1         0.0751
     108    O26     20.255874   14.959381   20.923037 O.3        1 MOL1        -0.3740
     109    C32     22.252952   13.890626   21.880990 C.3        1 MOL1         0.1003
     110    H52     23.072972   13.222715   21.586427 H          1 MOL1         0.0783
     111    O27     21.606788   13.337422   23.036943 O.3        1 MOL1        -0.5519
     112    H53     20.904829   13.981431   23.307672 H          1 MOL1         0.3769
     113    C33     22.866604   15.272683   22.210207 C.3        1 MOL1         0.1053
     114    H54     22.057656   15.944951   22.526535 H          1 MOL1         0.0783
     115    O28     23.817992   15.123310   23.267567 O.3        1 MOL1        -0.5519
     116    H55     23.387342   14.521882   23.915827 H          1 MOL1         0.3769
     117    C34     23.549768   15.882453   20.960925 C.3        1 MOL1         0.1018
     118    H56     24.473673   15.324202   20.760840 H          1 MOL1         0.0783
     119    C35     22.633538   15.821582   19.708305 C.3        1 MOL1         0.1043
     120    H57     21.814285   16.536064   19.849168 H          1 MOL1         0.0783
     121    O29     22.079229   14.489692   19.553097 O.3        1 MOL1        -0.3740
     122    C36     23.366843   16.205002   18.401097 C.3        1 MOL1         0.0138
     123    H58     23.611083   17.275055   18.440689 H          1 MOL1         0.0794
     124    H59     22.680738   16.055827   17.556688 H          1 MOL1         0.0794
     125    O30     24.565432   15.442055   18.211925 O.3        1 MOL1        -0.5486
     126    H60     24.967015   15.723794   17.361486 H          1 MOL1         0.3769
     127    C1      19.097965   17.859074   17.867076 C.3        1 MOL1        -0.2426
     128    H1      18.034942   18.089267   17.994668 H          1 MOL1         0.0959
     129    H2      19.243269   16.788038   18.060932 H          1 MOL1         0.0959
     130    H3      19.360473   18.049368   16.818355 H          1 MOL1         0.0959
     131    C2      19.970924   18.712643   18.809215 C.3        1 MOL1        -0.1410
     132    H4      19.846956   19.778180   18.571121 H          1 MOL1         0.0948
     133    H5      21.027367   18.472695   18.627975 H          1 MOL1         0.0948
     134    C3      19.624405   18.465336   20.293771 C.3        1 MOL1        -0.1435
     135    H6      18.613006   18.832542   20.503174 H          1 MOL1         0.0948
     136    H7      19.619743   17.388362   20.487915 H          1 MOL1         0.0948
     137    C4      20.645131   19.147433   21.229594 C.3        1 MOL1        -0.1435
     138    H8      20.662201   20.226679   21.028168 H          1 MOL1         0.0948
     139    H9      21.641161   18.767970   20.988969 H          1 MOL1         0.0948
     140    C5      20.416156   18.899712   22.737832 C.3        1 MOL1        -0.1435
     141    H10     20.550444   17.834345   22.965962 H          1 MOL1         0.0948
     142    H11     21.210213   19.423894   23.284040 H          1 MOL1         0.0948
     143    C6      19.027251   19.369616   23.233219 C.3        1 MOL1        -0.1500
     144    H12     18.265044   18.674458   22.862217 H          1 MOL1         0.0948
     145    H13     18.792467   20.349428   22.802580 H          1 MOL1         0.0948
     146    C7      18.931718   19.448623   24.771198 C.3        1 MOL1         0.1162
     147    H14     19.244189   18.487764   25.191551 H          1 MOL1         0.0910
     148    C8      17.483997   19.725290   25.205872 C.3        1 MOL1        -0.2491
     149    H15     17.100807   20.650643   24.757207 H          1 MOL1         0.0959
     150    H16     16.824736   18.902032   24.910335 H          1 MOL1         0.0959
     151    H17     17.417013   19.820244   26.296352 H          1 MOL1         0.0959
     152    N1      19.842700   20.501145   25.340728 N.4        1 MOL1        -0.5987
     153    H18     19.779652   20.546425   26.361059 H          1 MOL1         0.3605
     154    H19     19.596326   21.427614   24.967683 H          1 MOL1         0.3605
     155    H20     20.828803   20.347822   25.094154 H          1 MOL1         0.3605
@<TRIPOS>BOND
    1     1     2    1
    2     1     3    1
    3     1     4    1
    4     4     5    1
    5     4     6    1
    6     6     7    1
    7     4     8    1
    8     8     9    1
    9     8    10    1
   10    10    11    1
   11     8    12    1
   12    12    13    1
   13    12    14    1
   14    14    15    1
   15     1    16    1
   16    14    16    1
   17    14    17    1
   18    17    18    1
   19    17    19    1
   20    17    20    1
   21    20    21    1
   22    22    23    1
   23    22    24    1
   24    22    25    1
   25    25    26    1
   26    25    27    1
   27    27    28    1
   28    25    29    1
   29    29    30    1
   30    29    31    1
   31    31    32    1
   32     3    33    1
   33    29    33    1
   34    33    34    1
   35    33    35    1
   36    35    36    1
   37    22    37    1
   38    35    37    1
   39    35    38    1
   40    38    39    1
   41    38    40    1
   42    38    41    1
   43    41    42    1
   44    43    44    1
   45    43    45    1
   46    43    46    1
   47    46    47    1
   48    46    48    1
   49    48    49    1
   50    46    50    1
   51    50    51    1
   52    50    52    1
   53    52    53    1
   54    24    54    1
   55    50    54    1
   56    54    55    1
   57    54    56    1
   58    56    57    1
   59    43    58    1
   60    56    58    1
   61    56    59    1
   62    59    60    1
   63    59    61    1
   64    59    62    1
   65    62    63    1
   66    64    65    1
   67    64    66    1
   68    64    67    1
   69    67    68    1
   70    67    69    1
   71    69    70    1
   72    67    71    1
   73    71    72    1
   74    71    73    1
   75    73    74    1
   76    45    75    1
   77    71    75    1
   78    75    76    1
   79    75    77    1
   80    77    78    1
   81    64    79    1
   82    77    79    1
   83    77    80    1
   84    80    81    1
   85    80    82    1
   86    80    83    1
   87    83    84    1
   88    85    86    1
   89    85    87    1
   90    85    88    1
   91    88    89    1
   92    88    90    1
   93    90    91    1
   94    88    92    1
   95    92    93    1
   96    92    94    1
   97    94    95    1
   98    66    96    1
   99    92    96    1
  100    96    97    1
  101    96    98    1
  102    98    99    1
  103    85   100    1
  104    98   100    1
  105    98   101    1
  106   101   102    1
  107   101   103    1
  108   101   104    1
  109   104   105    1
  110   106   107    1
  111    12   108    1
  112   106   108    1
  113   106   109    1
  114   109   110    1
  115   109   111    1
  116   111   112    1
  117   109   113    1
  118   113   114    1
  119   113   115    1
  120   115   116    1
  121    87   117    1
  122   113   117    1
  123   117   118    1
  124   117   119    1
  125   119   120    1
  126   106   121    1
  127   119   121    1
  128   119   122    1
  129   122   123    1
  130   122   124    1
  131   122   125    1
  132   125   126    1
  133   127   128    1
  134   127   129    1
  135   127   130    1
  136   127   131    1
  137   131   132    1
  138   131   133    1
  139   131   134    1
  140   134   135    1
  141   134   136    1
  142   134   137    1
  143   137   138    1
  144   137   139    1
  145   137   140    1
  146   140   141    1
  147   140   142    1
  148   140   143    1
  149   143   144    1
  150   143   145    1
  151   143   146    1
  152   146   147    1
  153   146   148    1
  154   148   149    1
  155   148   150    1
  156   148   151    1
  157   146   152    1
  158   152   153    1
  159   152   154    1
  160   152   155    1
@<TRIPOS>SUBSTRUCTURE
       1 MOL1            1 RESIDUE      1      MOL     
       2 MOL1          155 RESIDUE      1      MOL     
@<SCITEGIC>MOL_PROPERTY
feprocess Rank
SciTegic.value.IntegerValue
6

@<SCITEGIC>MOL_PROPERTY
Conf_Id
SciTegic.value.IntegerValue
207

@<SCITEGIC>MOL_PROPERTY
Probability
SciTegic.value.DoubleValue
0.07

@<SCITEGIC>MOL_PROPERTY
G
SciTegic.value.DoubleValue
563.949

@<SCITEGIC>MOL_PROPERTY
E
SciTegic.value.DoubleValue
353.543

@<SCITEGIC>MOL_PROPERTY
-TS
SciTegic.value.DoubleValue
210.407

@<SCITEGIC>MOL_PROPERTY
U+W
SciTegic.value.DoubleValue
216.724

@<SCITEGIC>MOL_PROPERTY
U
SciTegic.value.DoubleValue
299.157

@<SCITEGIC>MOL_PROPERTY
W
SciTegic.value.DoubleValue
-82.434

@<SCITEGIC>MOL_PROPERTY
W(PB)
SciTegic.value.DoubleValue
-88.534

@<SCITEGIC>MOL_PROPERTY
W(SA)
SciTegic.value.DoubleValue
6.100

@<SCITEGIC>MOL_PROPERTY
Valence
SciTegic.value.DoubleValue
151.314

@<SCITEGIC>MOL_PROPERTY
Coulomb
SciTegic.value.DoubleValue
177.109

@<SCITEGIC>MOL_PROPERTY
VdW
SciTegic.value.DoubleValue
-29.266

@<SCITEGIC>MOL_PROPERTY
VdW6
SciTegic.value.DoubleValue
-191.442

@<SCITEGIC>MOL_PROPERTY
VdW12
SciTegic.value.DoubleValue
162.176

@<SCITEGIC>MOL_PROPERTY
Bond
SciTegic.value.DoubleValue
4.732

@<SCITEGIC>MOL_PROPERTY
Angle
SciTegic.value.DoubleValue
13.011

@<SCITEGIC>MOL_PROPERTY
Pdih
SciTegic.value.DoubleValue
133.571

@<SCITEGIC>MOL_PROPERTY
Idih
SciTegic.value.DoubleValue
0.000

@<SCITEGIC>MOL_PROPERTY
Tether
SciTegic.value.DoubleValue
0.000

@<TRIPOS>MOLECULE
CD_guest-s15_fast_vm2_rndm.mol2 : feprocess host+ligand conformer 7
         155         160           2
SMALL
USER_CHARGES
 
@<TRIPOS>ATOM
       1    C1      16.287543   15.347252   20.634183 C.3        1 MOL1         0.2972
       2    H1      15.257826   15.220240   20.275722 H          1 MOL1         0.0751
       3    O1      16.497379   16.653514   21.203070 O.3        1 MOL1        -0.3740
       4    C2      16.632731   14.292937   21.720078 C.3        1 MOL1         0.1003
       5    H2      16.508081   13.301938   21.264639 H          1 MOL1         0.0783
       6    O2      15.754591   14.401993   22.851541 O.3        1 MOL1        -0.5519
       7    H3      15.728733   15.356112   23.118429 H          1 MOL1         0.3769
       8    C3      18.110055   14.429729   22.166398 C.3        1 MOL1         0.1053
       9    H4      18.228677   15.394653   22.678596 H          1 MOL1         0.0783
      10    O3      18.447658   13.362304   23.058689 O.3        1 MOL1        -0.5519
      11    H5      17.691155   13.302639   23.683899 H          1 MOL1         0.3769
      12    C4      19.054688   14.410212   20.940736 C.3        1 MOL1         0.1018
      13    H6      19.044444   13.399934   20.510649 H          1 MOL1         0.0783
      14    C5      18.609097   15.427606   19.856674 C.3        1 MOL1         0.1043
      15    H7      18.719497   16.436469   20.269991 H          1 MOL1         0.0783
      16    O4      17.216959   15.187736   19.539566 O.3        1 MOL1        -0.3740
      17    C6      19.424125   15.382846   18.538401 C.3        1 MOL1         0.0138
      18    H8      20.286613   16.051370   18.638165 H          1 MOL1         0.0794
      19    H9      18.801909   15.789655   17.730091 H          1 MOL1         0.0794
      20    O5      19.876171   14.068135   18.195075 O.3        1 MOL1        -0.5486
      21    H10     20.675031   13.885961   18.742531 H          1 MOL1         0.3769
      22    C7      14.673625   20.300953   21.831797 C.3        1 MOL1         0.2972
      23    H11     13.982001   21.140902   21.974728 H          1 MOL1         0.0751
      24    O6      16.045972   20.742876   21.756944 O.3        1 MOL1        -0.3740
      25    C8      14.544578   19.306067   23.011173 C.3        1 MOL1         0.1003
      26    H12     13.514042   18.927569   23.014551 H          1 MOL1         0.0783
      27    O7      14.819181   19.951592   24.265202 O.3        1 MOL1        -0.5519
      28    H13     15.201476   20.841021   24.052225 H          1 MOL1         0.3769
      29    C9      15.498013   18.108450   22.811107 C.3        1 MOL1         0.1053
      30    H14     16.521345   18.491163   22.877690 H          1 MOL1         0.0783
      31    O8      15.271914   17.139723   23.839729 O.3        1 MOL1        -0.5519
      32    H15     15.070899   17.663834   24.645453 H          1 MOL1         0.3769
      33    C10     15.322365   17.457270   21.418636 C.3        1 MOL1         0.1018
      34    H16     14.404755   16.854091   21.431393 H          1 MOL1         0.0783
      35    C11     15.262820   18.504981   20.270796 C.3        1 MOL1         0.1043
      36    H17     16.272578   18.913238   20.131131 H          1 MOL1         0.0783
      37    O9      14.359647   19.585178   20.619122 O.3        1 MOL1        -0.3740
      38    C12     14.817655   17.912519   18.912331 C.3        1 MOL1         0.0138
      39    H18     15.630475   17.285183   18.522182 H          1 MOL1         0.0794
      40    H19     14.672937   18.736840   18.201254 H          1 MOL1         0.0794
      41    O10     13.618008   17.136950   19.027774 O.3        1 MOL1        -0.5486
      42    H20     13.358116   16.853770   18.124066 H          1 MOL1         0.3769
      43    C13     18.355883   24.198761   21.394640 C.3        1 MOL1         0.2972
      44    H21     18.693765   25.230216   21.233715 H          1 MOL1         0.0751
      45    O11     19.463304   23.295322   21.587216 O.3        1 MOL1        -0.3740
      46    C14     17.468248   24.122921   22.661465 C.3        1 MOL1         0.1003
      47    H22     16.617320   24.801248   22.517371 H          1 MOL1         0.0783
      48    O12     18.214528   24.527720   23.820851 O.3        1 MOL1        -0.5519
      49    H23     19.156713   24.271621   23.661472 H          1 MOL1         0.3769
      50    C15     16.918769   22.690239   22.852835 C.3        1 MOL1         0.1053
      51    H24     17.778040   22.047075   23.068051 H          1 MOL1         0.0783
      52    O13     16.001776   22.662478   23.951564 O.3        1 MOL1        -0.5519
      53    H25     16.397838   23.263283   24.621923 H          1 MOL1         0.3769
      54    C16     16.245805   22.157051   21.563292 C.3        1 MOL1         0.1018
      55    H26     15.302340   22.691738   21.390787 H          1 MOL1         0.0783
      56    C17     17.167142   22.345468   20.330785 C.3        1 MOL1         0.1043
      57    H27     18.039375   21.693117   20.447878 H          1 MOL1         0.0783
      58    O14     17.574538   23.734003   20.275335 O.3        1 MOL1        -0.3740
      59    C18     16.478393   21.997849   18.993055 C.3        1 MOL1         0.0138
      60    H28     15.786400   22.806664   18.722850 H          1 MOL1         0.0794
      61    H29     15.885508   21.084016   19.117801 H          1 MOL1         0.0794
      62    O15     17.453229   21.796716   17.962447 O.3        1 MOL1        -0.5486
      63    H30     16.965970   21.633700   17.125921 H          1 MOL1         0.3769
      64    C19     23.495894   22.726410   20.790977 C.3        1 MOL1         0.2972
      65    H31     24.546066   22.832006   20.490269 H          1 MOL1         0.0751
      66    O16     23.175044   21.351101   21.086169 O.3        1 MOL1        -0.3740
      67    C20     23.172563   23.633496   22.010748 C.3        1 MOL1         0.1003
      68    H32     23.340588   24.670741   21.693018 H          1 MOL1         0.0783
      69    O17     24.016438   23.357933   23.138151 O.3        1 MOL1        -0.5519
      70    H33     23.807367   22.435780   23.432391 H          1 MOL1         0.3769
      71    C21     21.683398   23.492692   22.399454 C.3        1 MOL1         0.1053
      72    H34     21.513766   22.460310   22.734614 H          1 MOL1         0.0783
      73    O18     21.365573   24.404637   23.456967 O.3        1 MOL1        -0.5519
      74    H35     22.109782   24.329481   24.094530 H          1 MOL1         0.3769
      75    C22     20.764544   23.765969   21.184818 C.3        1 MOL1         0.1018
      76    H36     20.768602   24.844285   20.977592 H          1 MOL1         0.0783
      77    C23     21.206533   22.991199   19.909761 C.3        1 MOL1         0.1043
      78    H37     20.959217   21.930601   20.043370 H          1 MOL1         0.0783
      79    O19     22.636223   23.152443   19.713687 O.3        1 MOL1        -0.3740
      80    C24     20.515981   23.512037   18.625616 C.3        1 MOL1         0.0138
      81    H38     21.133603   24.306832   18.186769 H          1 MOL1         0.0794
      82    H39     19.548710   23.962223   18.870794 H          1 MOL1         0.0794
      83    O20     20.321244   22.459176   17.678002 O.3        1 MOL1        -0.5486
      84    H40     19.394963   22.131493   17.795751 H          1 MOL1         0.3769
      85    C25     24.870973   17.711486   22.161397 C.3        1 MOL1         0.2972
      86    H41     25.530326   16.902767   22.501944 H          1 MOL1         0.0751
      87    O21     23.672799   17.195536   21.545394 O.3        1 MOL1        -0.3740
      88    C26     24.492921   18.637867   23.348870 C.3        1 MOL1         0.1003
      89    H42     25.427455   19.061829   23.739027 H          1 MOL1         0.0783
      90    O22     23.820476   17.931212   24.403351 O.3        1 MOL1        -0.5519
      91    H43     23.950019   16.965794   24.240621 H          1 MOL1         0.3769
      92    C27     23.600555   19.799988   22.868588 C.3        1 MOL1         0.1053
      93    H44     22.658943   19.361928   22.527900 H          1 MOL1         0.0783
      94    O23     23.356603   20.684119   23.966611 O.3        1 MOL1        -0.5519
      95    H45     23.177263   20.083420   24.725194 H          1 MOL1         0.3769
      96    C28     24.228237   20.556277   21.673686 C.3        1 MOL1         0.1018
      97    H46     25.056397   21.174446   22.044483 H          1 MOL1         0.0783
      98    C29     24.749356   19.584118   20.577158 C.3        1 MOL1         0.1043
      99    H47     23.879659   19.140897   20.074407 H          1 MOL1         0.0783
     100    O24     25.543659   18.526503   21.177192 O.3        1 MOL1        -0.3740
     101    C30     25.600781   20.279864   19.488403 C.3        1 MOL1         0.0138
     102    H48     24.936412   20.898864   18.870152 H          1 MOL1         0.0794
     103    H49     26.030507   19.509199   18.834525 H          1 MOL1         0.0794
     104    O25     26.638866   21.092891   20.050057 O.3        1 MOL1        -0.5486
     105    H50     27.185974   21.432229   19.308387 H          1 MOL1         0.3769
     106    C31     21.390612   13.791060   21.245320 C.3        1 MOL1         0.2972
     107    H51     20.968945   12.786525   21.111723 H          1 MOL1         0.0751
     108    O26     20.360619   14.786051   21.414199 O.3        1 MOL1        -0.3740
     109    C32     22.286837   13.814185   22.502704 C.3        1 MOL1         0.1003
     110    H52     23.103416   13.098809   22.338917 H          1 MOL1         0.0783
     111    O27     21.534162   13.419906   23.661039 O.3        1 MOL1        -0.5519
     112    H53     20.588508   13.646778   23.480282 H          1 MOL1         0.3769
     113    C33     22.910330   15.212964   22.714969 C.3        1 MOL1         0.1053
     114    H54     22.104703   15.901258   23.004188 H          1 MOL1         0.0783
     115    O28     23.874094   15.121138   23.769078 O.3        1 MOL1        -0.5519
     116    H55     23.447012   14.552521   24.450117 H          1 MOL1         0.3769
     117    C34     23.573099   15.761634   21.420908 C.3        1 MOL1         0.1018
     118    H56     24.558628   15.295853   21.294797 H          1 MOL1         0.0783
     119    C35     22.725207   15.511080   20.141760 C.3        1 MOL1         0.1043
     120    H57     21.883155   16.208671   20.162109 H          1 MOL1         0.0783
     121    O29     22.203589   14.159589   20.113179 O.3        1 MOL1        -0.3740
     122    C36     23.491763   15.780929   18.823857 C.3        1 MOL1         0.0138
     123    H58     23.668632   16.861424   18.735603 H          1 MOL1         0.0794
     124    H59     22.850660   15.487318   17.982006 H          1 MOL1         0.0794
     125    O30     24.738637   15.079159   18.756424 O.3        1 MOL1        -0.5486
     126    H60     25.376224   15.547648   19.336319 H          1 MOL1         0.3769
     127    C1      20.829703   19.172369   18.342981 C.3        1 MOL1        -0.2426
     128    H1      20.392133   19.373673   17.356520 H          1 MOL1         0.0959
     129    H2      21.325172   18.195103   18.303119 H          1 MOL1         0.0959
     130    H3      21.595841   19.937693   18.527892 H          1 MOL1         0.0959
     131    C2      19.741460   19.209850   19.436040 C.3        1 MOL1        -0.1410
     132    H4      18.955908   18.479263   19.203299 H          1 MOL1         0.0948
     133    H5      19.263539   20.196253   19.426817 H          1 MOL1         0.0948
     134    C3      20.339639   18.931506   20.830846 C.3        1 MOL1        -0.1435
     135    H6      20.836111   17.955491   20.828483 H          1 MOL1         0.0948
     136    H7      21.112345   19.680587   21.037962 H          1 MOL1         0.0948
     137    C4      19.288049   18.964391   21.959721 C.3        1 MOL1        -0.1435
     138    H8      18.437829   18.329867   21.686545 H          1 MOL1         0.0948
     139    H9      18.906067   19.988553   22.057591 H          1 MOL1         0.0948
     140    C5      19.885535   18.469113   23.301432 C.3        1 MOL1        -0.1435
     141    H10     20.216695   17.428074   23.184299 H          1 MOL1         0.0948
     142    H11     20.785833   19.044217   23.543305 H          1 MOL1         0.0948
     143    C6      18.905945   18.545089   24.499211 C.3        1 MOL1        -0.1500
     144    H12     19.421634   18.188409   25.400535 H          1 MOL1         0.0948
     145    H13     18.081474   17.842095   24.328265 H          1 MOL1         0.0948
     146    C7      18.334573   19.956711   24.767043 C.3        1 MOL1         0.1162
     147    H14     17.820160   20.288459   23.862052 H          1 MOL1         0.0910
     148    C8      19.438489   20.976166   25.104639 C.3        1 MOL1        -0.2491
     149    H15     19.004940   21.956228   25.339277 H          1 MOL1         0.0959
     150    H16     20.029295   20.649654   25.969269 H          1 MOL1         0.0959
     151    H17     20.120603   21.121870   24.258758 H          1 MOL1         0.0959
     152    N1      17.290001   19.946240   25.845463 N.4        1 MOL1        -0.5987
     153    H18     17.625547   19.496276   26.700678 H          1 MOL1         0.3605
     154    H19     16.438377   19.462320   25.530964 H          1 MOL1         0.3605
     155    H20     17.002877   20.899889   26.083140 H          1 MOL1         0.3605
@<TRIPOS>BOND
    1     1     2    1
    2     1     3    1
    3     1     4    1
    4     4     5    1
    5     4     6    1
    6     6     7    1
    7     4     8    1
    8     8     9    1
    9     8    10    1
   10    10    11    1
   11     8    12    1
   12    12    13    1
   13    12    14    1
   14    14    15    1
   15     1    16    1
   16    14    16    1
   17    14    17    1
   18    17    18    1
   19    17    19    1
   20    17    20    1
   21    20    21    1
   22    22    23    1
   23    22    24    1
   24    22    25    1
   25    25    26    1
   26    25    27    1
   27    27    28    1
   28    25    29    1
   29    29    30    1
   30    29    31    1
   31    31    32    1
   32     3    33    1
   33    29    33    1
   34    33    34    1
   35    33    35    1
   36    35    36    1
   37    22    37    1
   38    35    37    1
   39    35    38    1
   40    38    39    1
   41    38    40    1
   42    38    41    1
   43    41    42    1
   44    43    44    1
   45    43    45    1
   46    43    46    1
   47    46    47    1
   48    46    48    1
   49    48    49    1
   50    46    50    1
   51    50    51    1
   52    50    52    1
   53    52    53    1
   54    24    54    1
   55    50    54    1
   56    54    55    1
   57    54    56    1
   58    56    57    1
   59    43    58    1
   60    56    58    1
   61    56    59    1
   62    59    60    1
   63    59    61    1
   64    59    62    1
   65    62    63    1
   66    64    65    1
   67    64    66    1
   68    64    67    1
   69    67    68    1
   70    67    69    1
   71    69    70    1
   72    67    71    1
   73    71    72    1
   74    71    73    1
   75    73    74    1
   76    45    75    1
   77    71    75    1
   78    75    76    1
   79    75    77    1
   80    77    78    1
   81    64    79    1
   82    77    79    1
   83    77    80    1
   84    80    81    1
   85    80    82    1
   86    80    83    1
   87    83    84    1
   88    85    86    1
   89    85    87    1
   90    85    88    1
   91    88    89    1
   92    88    90    1
   93    90    91    1
   94    88    92    1
   95    92    93    1
   96    92    94    1
   97    94    95    1
   98    66    96    1
   99    92    96    1
  100    96    97    1
  101    96    98    1
  102    98    99    1
  103    85   100    1
  104    98   100    1
  105    98   101    1
  106   101   102    1
  107   101   103    1
  108   101   104    1
  109   104   105    1
  110   106   107    1
  111    12   108    1
  112   106   108    1
  113   106   109    1
  114   109   110    1
  115   109   111    1
  116   111   112    1
  117   109   113    1
  118   113   114    1
  119   113   115    1
  120   115   116    1
  121    87   117    1
  122   113   117    1
  123   117   118    1
  124   117   119    1
  125   119   120    1
  126   106   121    1
  127   119   121    1
  128   119   122    1
  129   122   123    1
  130   122   124    1
  131   122   125    1
  132   125   126    1
  133   127   128    1
  134   127   129    1
  135   127   130    1
  136   127   131    1
  137   131   132    1
  138   131   133    1
  139   131   134    1
  140   134   135    1
  141   134   136    1
  142   134   137    1
  143   137   138    1
  144   137   139    1
  145   137   140    1
  146   140   141    1
  147   140   142    1
  148   140   143    1
  149   143   144    1
  150   143   145    1
  151   143   146    1
  152   146   147    1
  153   146   148    1
  154   148   149    1
  155   148   150    1
  156   148   151    1
  157   146   152    1
  158   152   153    1
  159   152   154    1
  160   152   155    1
@<TRIPOS>SUBSTRUCTURE
       1 MOL1            1 RESIDUE      1      MOL     
       2 MOL1          155 RESIDUE      1      MOL     
@<SCITEGIC>MOL_PROPERTY
feprocess Rank
SciTegic.value.IntegerValue
7

@<SCITEGIC>MOL_PROPERTY
Conf_Id
SciTegic.value.IntegerValue
876

@<SCITEGIC>MOL_PROPERTY
Probability
SciTegic.value.DoubleValue
0.06

@<SCITEGIC>MOL_PROPERTY
G
SciTegic.value.DoubleValue
564.013

@<SCITEGIC>MOL_PROPERTY
E
SciTegic.value.DoubleValue
354.306

@<SCITEGIC>MOL_PROPERTY
-TS
SciTegic.value.DoubleValue
209.708

@<SCITEGIC>MOL_PROPERTY
U+W
SciTegic.value.DoubleValue
217.486

@<SCITEGIC>MOL_PROPERTY
U
SciTegic.value.DoubleValue
299.451

@<SCITEGIC>MOL_PROPERTY
W
SciTegic.value.DoubleValue
-81.965

@<SCITEGIC>MOL_PROPERTY
W(PB)
SciTegic.value.DoubleValue
-87.931

@<SCITEGIC>MOL_PROPERTY
W(SA)
SciTegic.value.DoubleValue
5.967

@<SCITEGIC>MOL_PROPERTY
Valence
SciTegic.value.DoubleValue
152.839

@<SCITEGIC>MOL_PROPERTY
Coulomb
SciTegic.value.DoubleValue
176.999

@<SCITEGIC>MOL_PROPERTY
VdW
SciTegic.value.DoubleValue
-30.388

@<SCITEGIC>MOL_PROPERTY
VdW6
SciTegic.value.DoubleValue
-190.702

@<SCITEGIC>MOL_PROPERTY
VdW12
SciTegic.value.DoubleValue
160.314

@<SCITEGIC>MOL_PROPERTY
Bond
SciTegic.value.DoubleValue
4.623

@<SCITEGIC>MOL_PROPERTY
Angle
SciTegic.value.DoubleValue
11.692

@<SCITEGIC>MOL_PROPERTY
Pdih
SciTegic.value.DoubleValue
136.523

@<SCITEGIC>MOL_PROPERTY
Idih
SciTegic.value.DoubleValue
0.000

@<SCITEGIC>MOL_PROPERTY
Tether
SciTegic.value.DoubleValue
0.000

@<TRIPOS>MOLECULE
CD_guest-s15_fast_vm2_rndm.mol2 : feprocess host+ligand conformer 8
         155         160           2
SMALL
USER_CHARGES
 
@<TRIPOS>ATOM
       1    C1      16.211747   15.120799   20.306175 C.3        1 MOL1         0.2972
       2    H1      15.171929   15.023273   19.968577 H          1 MOL1         0.0751
       3    O1      16.542127   16.495754   20.608039 O.3        1 MOL1        -0.3740
       4    C2      16.495928   14.208894   21.530506 C.3        1 MOL1         0.1003
       5    H2      16.382551   13.172348   21.186712 H          1 MOL1         0.0783
       6    O2      15.575279   14.433054   22.607403 O.3        1 MOL1        -0.5519
       7    H3      15.759861   15.342329   22.953058 H          1 MOL1         0.3769
       8    C3      17.956704   14.388779   22.010230 C.3        1 MOL1         0.1053
       9    H4      18.069646   15.412652   22.392368 H          1 MOL1         0.0783
      10    O3      18.224073   13.447767   23.055841 O.3        1 MOL1        -0.5519
      11    H5      17.407709   13.439053   23.605663 H          1 MOL1         0.3769
      12    C4      18.961308   14.196767   20.841593 C.3        1 MOL1         0.1018
      13    H6      19.082072   13.123794   20.646098 H          1 MOL1         0.0783
      14    C5      18.517930   14.905825   19.531389 C.3        1 MOL1         0.1043
      15    H7      18.676840   15.981380   19.666519 H          1 MOL1         0.0783
      16    O4      17.111390   14.679774   19.267959 O.3        1 MOL1        -0.3740
      17    C6      19.336470   14.475513   18.288319 C.3        1 MOL1         0.0138
      18    H8      20.350611   14.887200   18.375842 H          1 MOL1         0.0794
      19    H9      18.878235   14.924257   17.397563 H          1 MOL1         0.0794
      20    O5      19.406729   13.053173   18.133891 O.3        1 MOL1        -0.5486
      21    H10     20.047020   12.712690   18.794673 H          1 MOL1         0.3769
      22    C7      15.001152   20.165466   21.789459 C.3        1 MOL1         0.2972
      23    H11     14.358802   20.981949   22.143086 H          1 MOL1         0.0751
      24    O6      16.242700   20.666175   21.251043 O.3        1 MOL1        -0.3740
      25    C8      15.299730   19.177039   22.947592 C.3        1 MOL1         0.1003
      26    H12     14.332301   18.792961   23.296678 H          1 MOL1         0.0783
      27    O7      15.972102   19.816377   24.043664 O.3        1 MOL1        -0.5519
      28    H13     15.774277   20.781398   23.982232 H          1 MOL1         0.3769
      29    C9      16.140735   17.979131   22.455469 C.3        1 MOL1         0.1053
      30    H14     17.132295   18.350093   22.173409 H          1 MOL1         0.0783
      31    O8      16.266902   17.045631   23.530812 O.3        1 MOL1        -0.5519
      32    H15     16.494791   17.603562   24.309037 H          1 MOL1         0.3769
      33    C10     15.513886   17.310446   21.206648 C.3        1 MOL1         0.1018
      34    H16     14.642339   16.718717   21.516189 H          1 MOL1         0.0783
      35    C11     15.091327   18.355332   20.135904 C.3        1 MOL1         0.1043
      36    H17     16.003080   18.774135   19.691528 H          1 MOL1         0.0783
      37    O9      14.329660   19.427410   20.746427 O.3        1 MOL1        -0.3740
      38    C12     14.255403   17.750747   18.982527 C.3        1 MOL1         0.0138
      39    H18     14.914831   17.124167   18.366729 H          1 MOL1         0.0794
      40    H19     13.893705   18.568955   18.345444 H          1 MOL1         0.0794
      41    O10     13.154853   16.969087   19.463732 O.3        1 MOL1        -0.5486
      42    H20     12.626690   16.686458   18.685468 H          1 MOL1         0.3769
      43    C13     18.469832   24.175583   21.349048 C.3        1 MOL1         0.2972
      44    H21     18.834259   25.207955   21.274370 H          1 MOL1         0.0751
      45    O11     19.528080   23.253668   21.669906 O.3        1 MOL1        -0.3740
      46    C14     17.410648   24.072704   22.470211 C.3        1 MOL1         0.1003
      47    H22     16.584420   24.745537   22.205699 H          1 MOL1         0.0783
      48    O12     17.971134   24.480735   23.728813 O.3        1 MOL1        -0.5519
      49    H23     18.923561   24.211291   23.724225 H          1 MOL1         0.3769
      50    C15     16.843876   22.636581   22.574791 C.3        1 MOL1         0.1053
      51    H24     17.643520   21.982446   22.947111 H          1 MOL1         0.0783
      52    O13     15.756536   22.654442   23.505951 O.3        1 MOL1        -0.5519
      53    H25     16.062393   23.240290   24.235955 H          1 MOL1         0.3769
      54    C16     16.381279   22.102325   21.188847 C.3        1 MOL1         0.1018
      55    H26     15.432914   22.583149   20.917104 H          1 MOL1         0.0783
      56    C17     17.426163   22.376464   20.072847 C.3        1 MOL1         0.1043
      57    H27     18.288900   21.727299   20.258787 H          1 MOL1         0.0783
      58    O14     17.861032   23.757997   20.110427 O.3        1 MOL1        -0.3740
      59    C18     16.914267   22.051927   18.647880 C.3        1 MOL1         0.0138
      60    H28     16.838751   20.962038   18.543935 H          1 MOL1         0.0794
      61    H29     17.660876   22.397061   17.920566 H          1 MOL1         0.0794
      62    O15     15.643531   22.649637   18.367088 O.3        1 MOL1        -0.5486
      63    H30     14.964301   22.154562   18.873090 H          1 MOL1         0.3769
      64    C19     23.665188   22.865088   21.510502 C.3        1 MOL1         0.2972
      65    H31     24.742404   23.046702   21.406590 H          1 MOL1         0.0751
      66    O16     23.376229   21.472040   21.738247 O.3        1 MOL1        -0.3740
      67    C20     23.115788   23.651588   22.726067 C.3        1 MOL1         0.1003
      68    H32     23.311479   24.717656   22.552024 H          1 MOL1         0.0783
      69    O17     23.778607   23.232633   23.930191 O.3        1 MOL1        -0.5519
      70    H33     23.966073   22.265745   23.834794 H          1 MOL1         0.3769
      71    C21     21.587397   23.456073   22.857526 C.3        1 MOL1         0.1053
      72    H34     21.404350   22.408207   23.126246 H          1 MOL1         0.0783
      73    O18     21.073898   24.312132   23.883400 O.3        1 MOL1        -0.5519
      74    H35     21.695906   24.209193   24.637613 H          1 MOL1         0.3769
      75    C22     20.869876   23.748276   21.517819 C.3        1 MOL1         0.1018
      76    H36     20.897623   24.831562   21.341285 H          1 MOL1         0.0783
      77    C23     21.535361   23.006987   20.324580 C.3        1 MOL1         0.1043
      78    H37     21.384484   21.930339   20.465975 H          1 MOL1         0.0783
      79    O19     22.957453   23.287416   20.324316 O.3        1 MOL1        -0.3740
      80    C24     20.956987   23.358451   18.930186 C.3        1 MOL1         0.0138
      81    H38     20.075222   22.730634   18.749768 H          1 MOL1         0.0794
      82    H39     21.699890   23.093183   18.166348 H          1 MOL1         0.0794
      83    O20     20.593474   24.736684   18.801753 O.3        1 MOL1        -0.5486
      84    H40     19.656056   24.810327   19.089191 H          1 MOL1         0.3769
      85    C25     24.943280   17.668144   21.073960 C.3        1 MOL1         0.2972
      86    H41     25.591397   16.818250   20.824825 H          1 MOL1         0.0751
      87    O21     23.572499   17.248888   21.246096 O.3        1 MOL1        -0.3740
      88    C26     25.441952   18.394340   22.355679 C.3        1 MOL1         0.1003
      89    H42     26.453436   18.763197   22.141185 H          1 MOL1         0.0783
      90    O22     25.504031   17.516854   23.489868 O.3        1 MOL1        -0.5519
      91    H43     24.577459   17.221978   23.678302 H          1 MOL1         0.3769
      92    C27     24.549041   19.618517   22.668673 C.3        1 MOL1         0.1053
      93    H44     23.543984   19.255592   22.924096 H          1 MOL1         0.0783
      94    O23     25.096812   20.350119   23.771265 O.3        1 MOL1        -0.5519
      95    H45     25.336990   19.669827   24.438795 H          1 MOL1         0.3769
      96    C28     24.433865   20.545508   21.435475 C.3        1 MOL1         0.1018
      97    H46     25.399260   21.049320   21.295416 H          1 MOL1         0.0783
      98    C29     24.061507   19.759130   20.147260 C.3        1 MOL1         0.1043
      99    H47     23.038591   19.386609   20.261625 H          1 MOL1         0.0783
     100    O24     24.963568   18.634062   19.998683 O.3        1 MOL1        -0.3740
     101    C30     24.084692   20.586465   18.837366 C.3        1 MOL1         0.0138
     102    H48     23.115750   21.089135   18.725740 H          1 MOL1         0.0794
     103    H49     24.183501   19.894402   17.990539 H          1 MOL1         0.0794
     104    O25     25.135024   21.558232   18.801403 O.3        1 MOL1        -0.5486
     105    H50     24.761060   22.391414   19.165167 H          1 MOL1         0.3769
     106    C31     21.143290   13.977742   21.932392 C.3        1 MOL1         0.2972
     107    H51     20.704534   13.004586   22.187829 H          1 MOL1         0.0751
     108    O26     20.209306   14.811687   21.217054 O.3        1 MOL1        -0.3740
     109    C32     21.607571   14.712368   23.216840 C.3        1 MOL1         0.1003
     110    H52     22.367371   14.080330   23.694873 H          1 MOL1         0.0783
     111    O27     20.522515   14.923408   24.134921 O.3        1 MOL1        -0.5519
     112    H53     19.764931   14.368452   23.828151 H          1 MOL1         0.3769
     113    C33     22.258258   16.067844   22.866537 C.3        1 MOL1         0.1053
     114    H54     21.468340   16.715193   22.472337 H          1 MOL1         0.0783
     115    O28     22.802101   16.646641   24.056454 O.3        1 MOL1        -0.5519
     116    H55     22.101516   16.514663   24.734514 H          1 MOL1         0.3769
     117    C34     23.354967   15.926371   21.780653 C.3        1 MOL1         0.1018
     118    H56     24.259296   15.514585   22.247649 H          1 MOL1         0.0783
     119    C35     22.914352   15.018896   20.596207 C.3        1 MOL1         0.1043
     120    H57     22.178794   15.573995   19.999715 H          1 MOL1         0.0783
     121    O29     22.301685   13.800477   21.090923 O.3        1 MOL1        -0.3740
     122    C36     24.072465   14.632895   19.645036 C.3        1 MOL1         0.0138
     123    H58     24.364796   15.523492   19.072493 H          1 MOL1         0.0794
     124    H59     23.701595   13.890543   18.925607 H          1 MOL1         0.0794
     125    O30     25.206449   14.117041   20.353237 O.3        1 MOL1        -0.5486
     126    H60     25.861297   13.813110   19.687330 H          1 MOL1         0.3769
     127    C1      19.661676   20.201074   24.830777 C.3        1 MOL1        -0.2426
     128    H1      20.125155   21.186911   24.700112 H          1 MOL1         0.0959
     129    H2      18.572153   20.333495   24.827014 H          1 MOL1         0.0959
     130    H3      19.950168   19.820655   25.818880 H          1 MOL1         0.0959
     131    C2      20.103216   19.222901   23.722310 C.3        1 MOL1        -0.1410
     132    H4      19.638268   18.241786   23.896147 H          1 MOL1         0.0948
     133    H5      21.190544   19.074436   23.777520 H          1 MOL1         0.0948
     134    C3      19.718302   19.742392   22.321604 C.3        1 MOL1        -0.1435
     135    H6      18.638259   19.925147   22.283044 H          1 MOL1         0.0948
     136    H7      20.205370   20.708323   22.148059 H          1 MOL1         0.0948
     137    C4      20.128047   18.754743   21.209394 C.3        1 MOL1        -0.1435
     138    H8      19.690010   17.766679   21.410613 H          1 MOL1         0.0948
     139    H9      21.216913   18.630944   21.230385 H          1 MOL1         0.0948
     140    C5      19.677083   19.232231   19.813682 C.3        1 MOL1        -0.1435
     141    H10     18.581965   19.176497   19.770743 H          1 MOL1         0.0948
     142    H11     19.951495   20.284418   19.672762 H          1 MOL1         0.0948
     143    C6      20.321337   18.395291   18.682929 C.3        1 MOL1        -0.1500
     144    H12     20.176862   17.327457   18.874512 H          1 MOL1         0.0948
     145    H13     21.406198   18.560253   18.706626 H          1 MOL1         0.0948
     146    C7      19.792508   18.748859   17.275292 C.3        1 MOL1         0.1162
     147    H14     19.857498   19.833431   17.145380 H          1 MOL1         0.0910
     148    C8      18.326015   18.318715   17.083568 C.3        1 MOL1        -0.2491
     149    H15     18.196963   17.244621   17.262932 H          1 MOL1         0.0959
     150    H16     17.655356   18.856878   17.760919 H          1 MOL1         0.0959
     151    H17     17.991630   18.533586   16.061095 H          1 MOL1         0.0959
     152    N1      20.653586   18.142728   16.202330 N.4        1 MOL1        -0.5987
     153    H18     20.327200   18.411997   15.269601 H          1 MOL1         0.3605
     154    H19     20.642852   17.120602   16.244745 H          1 MOL1         0.3605
     155    H20     21.627947   18.446945   16.282367 H          1 MOL1         0.3605
@<TRIPOS>BOND
    1     1     2    1
    2     1     3    1
    3     1     4    1
    4     4     5    1
    5     4     6    1
    6     6     7    1
    7     4     8    1
    8     8     9    1
    9     8    10    1
   10    10    11    1
   11     8    12    1
   12    12    13    1
   13    12    14    1
   14    14    15    1
   15     1    16    1
   16    14    16    1
   17    14    17    1
   18    17    18    1
   19    17    19    1
   20    17    20    1
   21    20    21    1
   22    22    23    1
   23    22    24    1
   24    22    25    1
   25    25    26    1
   26    25    27    1
   27    27    28    1
   28    25    29    1
   29    29    30    1
   30    29    31    1
   31    31    32    1
   32     3    33    1
   33    29    33    1
   34    33    34    1
   35    33    35    1
   36    35    36    1
   37    22    37    1
   38    35    37    1
   39    35    38    1
   40    38    39    1
   41    38    40    1
   42    38    41    1
   43    41    42    1
   44    43    44    1
   45    43    45    1
   46    43    46    1
   47    46    47    1
   48    46    48    1
   49    48    49    1
   50    46    50    1
   51    50    51    1
   52    50    52    1
   53    52    53    1
   54    24    54    1
   55    50    54    1
   56    54    55    1
   57    54    56    1
   58    56    57    1
   59    43    58    1
   60    56    58    1
   61    56    59    1
   62    59    60    1
   63    59    61    1
   64    59    62    1
   65    62    63    1
   66    64    65    1
   67    64    66    1
   68    64    67    1
   69    67    68    1
   70    67    69    1
   71    69    70    1
   72    67    71    1
   73    71    72    1
   74    71    73    1
   75    73    74    1
   76    45    75    1
   77    71    75    1
   78    75    76    1
   79    75    77    1
   80    77    78    1
   81    64    79    1
   82    77    79    1
   83    77    80    1
   84    80    81    1
   85    80    82    1
   86    80    83    1
   87    83    84    1
   88    85    86    1
   89    85    87    1
   90    85    88    1
   91    88    89    1
   92    88    90    1
   93    90    91    1
   94    88    92    1
   95    92    93    1
   96    92    94    1
   97    94    95    1
   98    66    96    1
   99    92    96    1
  100    96    97    1
  101    96    98    1
  102    98    99    1
  103    85   100    1
  104    98   100    1
  105    98   101    1
  106   101   102    1
  107   101   103    1
  108   101   104    1
  109   104   105    1
  110   106   107    1
  111    12   108    1
  112   106   108    1
  113   106   109    1
  114   109   110    1
  115   109   111    1
  116   111   112    1
  117   109   113    1
  118   113   114    1
  119   113   115    1
  120   115   116    1
  121    87   117    1
  122   113   117    1
  123   117   118    1
  124   117   119    1
  125   119   120    1
  126   106   121    1
  127   119   121    1
  128   119   122    1
  129   122   123    1
  130   122   124    1
  131   122   125    1
  132   125   126    1
  133   127   128    1
  134   127   129    1
  135   127   130    1
  136   127   131    1
  137   131   132    1
  138   131   133    1
  139   131   134    1
  140   134   135    1
  141   134   136    1
  142   134   137    1
  143   137   138    1
  144   137   139    1
  145   137   140    1
  146   140   141    1
  147   140   142    1
  148   140   143    1
  149   143   144    1
  150   143   145    1
  151   143   146    1
  152   146   147    1
  153   146   148    1
  154   148   149    1
  155   148   150    1
  156   148   151    1
  157   146   152    1
  158   152   153    1
  159   152   154    1
  160   152   155    1
@<TRIPOS>SUBSTRUCTURE
       1 MOL1            1 RESIDUE      1      MOL     
       2 MOL1          155 RESIDUE      1      MOL     
@<SCITEGIC>MOL_PROPERTY
feprocess Rank
SciTegic.value.IntegerValue
8

@<SCITEGIC>MOL_PROPERTY
Conf_Id
SciTegic.value.IntegerValue
82

@<SCITEGIC>MOL_PROPERTY
Probability
SciTegic.value.DoubleValue
0.05

@<SCITEGIC>MOL_PROPERTY
G
SciTegic.value.DoubleValue
564.144

@<SCITEGIC>MOL_PROPERTY
E
SciTegic.value.DoubleValue
357.415

@<SCITEGIC>MOL_PROPERTY
-TS
SciTegic.value.DoubleValue
206.730

@<SCITEGIC>MOL_PROPERTY
U+W
SciTegic.value.DoubleValue
220.596

@<SCITEGIC>MOL_PROPERTY
U
SciTegic.value.DoubleValue
312.203

@<SCITEGIC>MOL_PROPERTY
W
SciTegic.value.DoubleValue
-91.607

@<SCITEGIC>MOL_PROPERTY
W(PB)
SciTegic.value.DoubleValue
-97.747

@<SCITEGIC>MOL_PROPERTY
W(SA)
SciTegic.value.DoubleValue
6.139

@<SCITEGIC>MOL_PROPERTY
Valence
SciTegic.value.DoubleValue
149.471

@<SCITEGIC>MOL_PROPERTY
Coulomb
SciTegic.value.DoubleValue
191.036

@<SCITEGIC>MOL_PROPERTY
VdW
SciTegic.value.DoubleValue
-28.304

@<SCITEGIC>MOL_PROPERTY
VdW6
SciTegic.value.DoubleValue
-184.902

@<SCITEGIC>MOL_PROPERTY
VdW12
SciTegic.value.DoubleValue
156.598

@<SCITEGIC>MOL_PROPERTY
Bond
SciTegic.value.DoubleValue
4.611

@<SCITEGIC>MOL_PROPERTY
Angle
SciTegic.value.DoubleValue
12.690

@<SCITEGIC>MOL_PROPERTY
Pdih
SciTegic.value.DoubleValue
132.171

@<SCITEGIC>MOL_PROPERTY
Idih
SciTegic.value.DoubleValue
0.000

@<SCITEGIC>MOL_PROPERTY
Tether
SciTegic.value.DoubleValue
0.000

