@<TRIPOS>MOLECULE
CD_guest-s16_fast_vm2_rndm.mol2 : feprocess host+ligand conformer 1
         139         145           2
SMALL
USER_CHARGES
 
@<TRIPOS>ATOM
       1    C1      16.285196   15.214461   20.578654 C.3        1 MOL1         0.2972
       2    H1      15.234823   15.080226   20.290308 H          1 MOL1         0.0751
       3    O1      16.580595   16.601379   20.854820 O.3        1 MOL1        -0.3740
       4    C2      16.643944   14.336806   21.808921 C.3        1 MOL1         0.1003
       5    H2      16.495205   13.292002   21.506222 H          1 MOL1         0.0783
       6    O2      15.801142   14.610731   22.937973 O.3        1 MOL1        -0.5519
       7    H3      15.980421   15.546274   23.209871 H          1 MOL1         0.3769
       8    C3      18.133526   14.507307   22.195422 C.3        1 MOL1         0.1053
       9    H4      18.275896   15.532621   22.564386 H          1 MOL1         0.0783
      10    O3      18.448900   13.567216   23.227689 O.3        1 MOL1        -0.5519
      11    H5      17.668466   13.576660   23.827643 H          1 MOL1         0.3769
      12    C4      19.066004   14.295274   20.971848 C.3        1 MOL1         0.1018
      13    H6      19.131113   13.221733   20.753689 H          1 MOL1         0.0783
      14    C5      18.561936   15.038597   19.703398 C.3        1 MOL1         0.1043
      15    H7      18.710322   16.112955   19.854219 H          1 MOL1         0.0783
      16    O4      17.148989   14.787869   19.502534 O.3        1 MOL1        -0.3740
      17    C6      19.331492   14.663146   18.412869 C.3        1 MOL1         0.0138
      18    H8      20.323205   15.133565   18.449850 H          1 MOL1         0.0794
      19    H9      18.801107   15.095154   17.553917 H          1 MOL1         0.0794
      20    O5      19.475334   13.247877   18.241631 O.3        1 MOL1        -0.5486
      21    H10     20.167158   12.944796   18.868463 H          1 MOL1         0.3769
      22    C7      14.884621   20.266814   21.792336 C.3        1 MOL1         0.2972
      23    H11     14.234593   21.096108   22.099656 H          1 MOL1         0.0751
      24    O6      16.080362   20.743896   21.143447 O.3        1 MOL1        -0.3740
      25    C8      15.271691   19.397230   23.018740 C.3        1 MOL1         0.1003
      26    H12     14.336875   19.001323   23.436649 H          1 MOL1         0.0783
      27    O7      15.948279   20.160578   24.030327 O.3        1 MOL1        -0.5519
      28    H13     15.853609   21.114521   23.791586 H          1 MOL1         0.3769
      29    C9      16.150460   18.197078   22.596735 C.3        1 MOL1         0.1053
      30    H14     17.118553   18.590935   22.265582 H          1 MOL1         0.0783
      31    O8      16.342824   17.342814   23.728628 O.3        1 MOL1        -0.5519
      32    H15     16.586639   17.955671   24.458806 H          1 MOL1         0.3769
      33    C10     15.522237   17.400874   21.424572 C.3        1 MOL1         0.1018
      34    H16     14.705982   16.782254   21.820033 H          1 MOL1         0.0783
      35    C11     14.979842   18.325044   20.296689 C.3        1 MOL1         0.1043
      36    H17     15.838802   18.748024   19.759610 H          1 MOL1         0.0783
      37    O9      14.193803   19.405663   20.862381 O.3        1 MOL1        -0.3740
      38    C12     14.111029   17.583215   19.252703 C.3        1 MOL1         0.0138
      39    H18     14.766505   16.944438   18.645412 H          1 MOL1         0.0794
      40    H19     13.664569   18.326293   18.578362 H          1 MOL1         0.0794
      41    O10     13.088172   16.787115   19.864510 O.3        1 MOL1        -0.5486
      42    H20     12.527919   16.418783   19.146753 H          1 MOL1         0.3769
      43    C13     18.434156   24.078586   20.664957 C.3        1 MOL1         0.2972
      44    H21     18.887401   25.054054   20.446846 H          1 MOL1         0.0751
      45    O11     19.449717   23.071632   20.891471 O.3        1 MOL1        -0.3740
      46    C14     17.463197   24.176904   21.873127 C.3        1 MOL1         0.1003
      47    H22     16.652643   24.853635   21.572169 H          1 MOL1         0.0783
      48    O12     18.094547   24.716210   23.043354 O.3        1 MOL1        -0.5519
      49    H23     18.769302   24.052016   23.333393 H          1 MOL1         0.3769
      50    C15     16.832266   22.799210   22.182509 C.3        1 MOL1         0.1053
      51    H24     17.632439   22.130614   22.528075 H          1 MOL1         0.0783
      52    O13     15.853543   22.959581   23.215496 O.3        1 MOL1        -0.5519
      53    H25     16.250133   23.605860   23.843325 H          1 MOL1         0.3769
      54    C16     16.184789   22.166548   20.920183 C.3        1 MOL1         0.1018
      55    H26     15.200276   22.620121   20.745861 H          1 MOL1         0.0783
      56    C17     17.051504   22.331066   19.638725 C.3        1 MOL1         0.1043
      57    H27     17.861773   21.600764   19.691388 H          1 MOL1         0.0783
      58    O14     17.632296   23.656007   19.544419 O.3        1 MOL1        -0.3740
      59    C18     16.268299   22.041111   18.336969 C.3        1 MOL1         0.0138
      60    H28     15.984020   20.980120   18.332693 H          1 MOL1         0.0794
      61    H29     16.937490   22.204807   17.481672 H          1 MOL1         0.0794
      62    O15     15.097303   22.859367   18.218189 O.3        1 MOL1        -0.5486
      63    H30     14.671144   22.646771   17.359401 H          1 MOL1         0.3769
      64    C19     23.395376   22.571834   22.135716 C.3        1 MOL1         0.2972
      65    H31     24.411965   22.693706   22.531115 H          1 MOL1         0.0751
      66    O16     23.242756   21.321377   21.437559 O.3        1 MOL1        -0.3740
      67    C20     22.354790   22.635788   23.283508 C.3        1 MOL1         0.1003
      68    H32     22.450264   23.624779   23.750533 H          1 MOL1         0.0783
      69    O17     22.591871   21.622689   24.274689 O.3        1 MOL1        -0.5519
      70    H33     23.497973   21.262867   24.114948 H          1 MOL1         0.3769
      71    C21     20.916791   22.500633   22.731547 C.3        1 MOL1         0.1053
      72    H34     20.805334   21.483309   22.338207 H          1 MOL1         0.0783
      73    O18     19.994617   22.704268   23.805541 O.3        1 MOL1        -0.5519
      74    H35     20.345040   22.148465   24.538133 H          1 MOL1         0.3769
      75    C22     20.645955   23.506213   21.581091 C.3        1 MOL1         0.1018
      76    H36     20.525365   24.506140   22.018055 H          1 MOL1         0.0783
      77    C23     21.801364   23.539266   20.539059 C.3        1 MOL1         0.1043
      78    H37     21.768932   22.608575   19.959543 H          1 MOL1         0.0783
      79    O19     23.085489   23.634165   21.208706 O.3        1 MOL1        -0.3740
      80    C24     21.688658   24.707020   19.529869 C.3        1 MOL1         0.0138
      81    H38     20.847941   24.502772   18.853130 H          1 MOL1         0.0794
      82    H39     22.600766   24.730526   18.918554 H          1 MOL1         0.0794
      83    O20     21.492058   25.968633   20.180691 O.3        1 MOL1        -0.5486
      84    H40     21.513138   26.666756   19.490176 H          1 MOL1         0.3769
      85    C25     25.116355   17.665168   20.961283 C.3        1 MOL1         0.2972
      86    H41     25.786005   16.824106   20.739911 H          1 MOL1         0.0751
      87    O21     23.755802   17.221070   21.158905 O.3        1 MOL1        -0.3740
      88    C26     25.596320   18.456015   22.207502 C.3        1 MOL1         0.1003
      89    H42     26.577585   18.880208   21.957337 H          1 MOL1         0.0783
      90    O22     25.743164   17.613499   23.359575 O.3        1 MOL1        -0.5519
      91    H43     24.847787   17.242048   23.563269 H          1 MOL1         0.3769
      92    C27     24.636171   19.634097   22.508008 C.3        1 MOL1         0.1053
      93    H44     23.662127   19.216145   22.799375 H          1 MOL1         0.0783
      94    O23     25.175852   20.408005   23.585124 O.3        1 MOL1        -0.5519
      95    H45     25.542781   19.745498   24.214221 H          1 MOL1         0.3769
      96    C28     24.427739   20.523415   21.250125 C.3        1 MOL1         0.1018
      97    H46     25.315696   21.150233   21.098903 H          1 MOL1         0.0783
      98    C29     24.166717   19.686870   19.967126 C.3        1 MOL1         0.1043
      99    H47     23.160712   19.264909   20.047342 H          1 MOL1         0.0783
     100    O24     25.119314   18.600382   19.861275 O.3        1 MOL1        -0.3740
     101    C30     24.194429   20.516436   18.659737 C.3        1 MOL1         0.0138
     102    H48     23.281218   21.125198   18.612909 H          1 MOL1         0.0794
     103    H49     24.163020   19.823848   17.808237 H          1 MOL1         0.0794
     104    O25     25.346752   21.362677   18.563807 O.3        1 MOL1        -0.5486
     105    H50     25.209401   22.118260   19.174787 H          1 MOL1         0.3769
     106    C31     21.323089   13.962347   21.883560 C.3        1 MOL1         0.2972
     107    H51     20.879107   12.988162   22.125713 H          1 MOL1         0.0751
     108    O26     20.359635   14.852036   21.281741 O.3        1 MOL1        -0.3740
     109    C32     21.905543   14.621642   23.160442 C.3        1 MOL1         0.1003
     110    H52     22.697421   13.959416   23.534203 H          1 MOL1         0.0783
     111    O27     20.910647   14.785668   24.183633 O.3        1 MOL1        -0.5519
     112    H53     20.078938   14.365239   23.854405 H          1 MOL1         0.3769
     113    C33     22.542869   15.987778   22.825784 C.3        1 MOL1         0.1053
     114    H54     21.736169   16.659080   22.513582 H          1 MOL1         0.0783
     115    O28     23.171718   16.506046   24.001157 O.3        1 MOL1        -0.5519
     116    H55     22.509082   16.364510   24.715037 H          1 MOL1         0.3769
     117    C34     23.561360   15.882620   21.661916 C.3        1 MOL1         0.1018
     118    H56     24.492793   15.447628   22.047893 H          1 MOL1         0.0783
     119    C35     23.024905   15.029620   20.475056 C.3        1 MOL1         0.1043
     120    H57     22.264510   15.622567   19.950440 H          1 MOL1         0.0783
     121    O29     22.414964   13.801751   20.953228 O.3        1 MOL1        -0.3740
     122    C36     24.114000   14.666543   19.437597 C.3        1 MOL1         0.0138
     123    H58     24.393975   15.578886   18.893642 H          1 MOL1         0.0794
     124    H59     23.682734   13.969947   18.706202 H          1 MOL1         0.0794
     125    O30     25.274933   14.091224   20.050214 O.3        1 MOL1        -0.5486
     126    H60     25.885415   13.815804   19.331732 H          1 MOL1         0.3769
     127    C1      19.989975   18.341600   21.192809 C.3        1 MOL1        -0.1693
     128    H1      20.769641   18.537179   21.940335 H          1 MOL1         0.0829
     129    H2      19.418416   17.461536   21.504654 H          1 MOL1         0.0829
     130    C2      20.472780   18.387112   19.702861 C.3        1 MOL1        -0.1768
     131    H3      21.472345   17.989476   19.505849 H          1 MOL1         0.0829
     132    H4      19.777589   17.960526   18.970011 H          1 MOL1         0.0829
     133    C3      20.354117   19.932796   19.871763 C.3        1 MOL1         0.1211
     134    H5      21.202450   20.385255   20.394962 H          1 MOL1         0.0786
     135    C4      19.152721   19.597776   20.803962 C.3        1 MOL1        -0.1768
     136    H6      18.946505   20.308798   21.610225 H          1 MOL1         0.0829
     137    H7      18.216269   19.372786   20.279812 H          1 MOL1         0.0829
     138    O1      20.042846   20.673713   18.716269 O.3        1 MOL1        -0.5515
     139    H8      19.782360   21.568573   19.020079 H          1 MOL1         0.3773
@<TRIPOS>BOND
    1     1     2    1
    2     1     3    1
    3     1     4    1
    4     4     5    1
    5     4     6    1
    6     6     7    1
    7     4     8    1
    8     8     9    1
    9     8    10    1
   10    10    11    1
   11     8    12    1
   12    12    13    1
   13    12    14    1
   14    14    15    1
   15     1    16    1
   16    14    16    1
   17    14    17    1
   18    17    18    1
   19    17    19    1
   20    17    20    1
   21    20    21    1
   22    22    23    1
   23    22    24    1
   24    22    25    1
   25    25    26    1
   26    25    27    1
   27    27    28    1
   28    25    29    1
   29    29    30    1
   30    29    31    1
   31    31    32    1
   32     3    33    1
   33    29    33    1
   34    33    34    1
   35    33    35    1
   36    35    36    1
   37    22    37    1
   38    35    37    1
   39    35    38    1
   40    38    39    1
   41    38    40    1
   42    38    41    1
   43    41    42    1
   44    43    44    1
   45    43    45    1
   46    43    46    1
   47    46    47    1
   48    46    48    1
   49    48    49    1
   50    46    50    1
   51    50    51    1
   52    50    52    1
   53    52    53    1
   54    24    54    1
   55    50    54    1
   56    54    55    1
   57    54    56    1
   58    56    57    1
   59    43    58    1
   60    56    58    1
   61    56    59    1
   62    59    60    1
   63    59    61    1
   64    59    62    1
   65    62    63    1
   66    64    65    1
   67    64    66    1
   68    64    67    1
   69    67    68    1
   70    67    69    1
   71    69    70    1
   72    67    71    1
   73    71    72    1
   74    71    73    1
   75    73    74    1
   76    45    75    1
   77    71    75    1
   78    75    76    1
   79    75    77    1
   80    77    78    1
   81    64    79    1
   82    77    79    1
   83    77    80    1
   84    80    81    1
   85    80    82    1
   86    80    83    1
   87    83    84    1
   88    85    86    1
   89    85    87    1
   90    85    88    1
   91    88    89    1
   92    88    90    1
   93    90    91    1
   94    88    92    1
   95    92    93    1
   96    92    94    1
   97    94    95    1
   98    66    96    1
   99    92    96    1
  100    96    97    1
  101    96    98    1
  102    98    99    1
  103    85   100    1
  104    98   100    1
  105    98   101    1
  106   101   102    1
  107   101   103    1
  108   101   104    1
  109   104   105    1
  110   106   107    1
  111    12   108    1
  112   106   108    1
  113   106   109    1
  114   109   110    1
  115   109   111    1
  116   111   112    1
  117   109   113    1
  118   113   114    1
  119   113   115    1
  120   115   116    1
  121    87   117    1
  122   113   117    1
  123   117   118    1
  124   117   119    1
  125   119   120    1
  126   106   121    1
  127   119   121    1
  128   119   122    1
  129   122   123    1
  130   122   124    1
  131   122   125    1
  132   125   126    1
  133   127   128    1
  134   127   129    1
  135   127   130    1
  136   130   131    1
  137   130   132    1
  138   130   133    1
  139   133   134    1
  140   127   135    1
  141   133   135    1
  142   135   136    1
  143   135   137    1
  144   133   138    1
  145   138   139    1
@<TRIPOS>SUBSTRUCTURE
       1 MOL1            1 RESIDUE      1      MOL     
       2 MOL1          139 RESIDUE      1      MOL     
@<SCITEGIC>MOL_PROPERTY
feprocess Rank
SciTegic.value.IntegerValue
1

@<SCITEGIC>MOL_PROPERTY
Conf_Id
SciTegic.value.IntegerValue
341

@<SCITEGIC>MOL_PROPERTY
Probability
SciTegic.value.DoubleValue
19.31

@<SCITEGIC>MOL_PROPERTY
G
SciTegic.value.DoubleValue
545.030

@<SCITEGIC>MOL_PROPERTY
E
SciTegic.value.DoubleValue
365.725

@<SCITEGIC>MOL_PROPERTY
-TS
SciTegic.value.DoubleValue
179.305

@<SCITEGIC>MOL_PROPERTY
U+W
SciTegic.value.DoubleValue
243.214

@<SCITEGIC>MOL_PROPERTY
U
SciTegic.value.DoubleValue
281.676

@<SCITEGIC>MOL_PROPERTY
W
SciTegic.value.DoubleValue
-38.462

@<SCITEGIC>MOL_PROPERTY
W(PB)
SciTegic.value.DoubleValue
-44.563

@<SCITEGIC>MOL_PROPERTY
W(SA)
SciTegic.value.DoubleValue
6.101

@<SCITEGIC>MOL_PROPERTY
Valence
SciTegic.value.DoubleValue
149.448

@<SCITEGIC>MOL_PROPERTY
Coulomb
SciTegic.value.DoubleValue
150.455

@<SCITEGIC>MOL_PROPERTY
VdW
SciTegic.value.DoubleValue
-18.228

@<SCITEGIC>MOL_PROPERTY
VdW6
SciTegic.value.DoubleValue
-168.866

@<SCITEGIC>MOL_PROPERTY
VdW12
SciTegic.value.DoubleValue
150.638

@<SCITEGIC>MOL_PROPERTY
Bond
SciTegic.value.DoubleValue
4.913

@<SCITEGIC>MOL_PROPERTY
Angle
SciTegic.value.DoubleValue
13.775

@<SCITEGIC>MOL_PROPERTY
Pdih
SciTegic.value.DoubleValue
130.761

@<SCITEGIC>MOL_PROPERTY
Idih
SciTegic.value.DoubleValue
0.000

@<SCITEGIC>MOL_PROPERTY
Tether
SciTegic.value.DoubleValue
0.000

