@<TRIPOS>MOLECULE
CD_guest-5_fast_vm2_rndm.mol2 : feprocess host+ligand conformer 1
         148         154           2
SMALL
USER_CHARGES
 
@<TRIPOS>ATOM
       1    C1      16.319827   15.285122   20.590404 C.3        1 MOL1         0.2972
       2    H1      15.321904   15.090542   20.177271 H          1 MOL1         0.0751
       3    O1      16.442295   16.635195   21.082240 O.3        1 MOL1        -0.3740
       4    C2      16.603673   14.337435   21.785159 C.3        1 MOL1         0.1003
       5    H2      16.527266   13.306942   21.414734 H          1 MOL1         0.0783
       6    O2      15.640878   14.535893   22.833335 O.3        1 MOL1        -0.5519
       7    H3      15.446425   15.506206   22.874918 H          1 MOL1         0.3769
       8    C3      18.040494   14.545674   22.325215 C.3        1 MOL1         0.1053
       9    H4      18.098898   15.546350   22.769648 H          1 MOL1         0.0783
      10    O3      18.331407   13.559855   23.321284 O.3        1 MOL1        -0.5519
      11    H5      17.532090   13.533412   23.893339 H          1 MOL1         0.3769
      12    C4      19.075243   14.465526   21.177327 C.3        1 MOL1         0.1018
      13    H6      19.130916   13.425556   20.829219 H          1 MOL1         0.0783
      14    C5      18.689550   15.372849   19.978565 C.3        1 MOL1         0.1043
      15    H7      18.740367   16.420165   20.296439 H          1 MOL1         0.0783
      16    O4      17.332887   15.062193   19.582336 O.3        1 MOL1        -0.3740
      17    C6      19.618355   15.236490   18.743458 C.3        1 MOL1         0.0138
      18    H8      20.439450   15.956839   18.847000 H          1 MOL1         0.0794
      19    H9      19.053818   15.526886   17.847426 H          1 MOL1         0.0794
      20    O5      20.157895   13.918892   18.579339 O.3        1 MOL1        -0.5486
      21    H10     20.835365   13.791352   19.283857 H          1 MOL1         0.3769
      22    C7      14.701612   20.393754   20.886467 C.3        1 MOL1         0.2972
      23    H11     14.056415   21.265554   20.717381 H          1 MOL1         0.0751
      24    O6      16.024300   20.781426   21.306507 O.3        1 MOL1        -0.3740
      25    C8      14.100330   19.451231   21.961415 C.3        1 MOL1         0.1003
      26    H12     13.137075   19.090067   21.578249 H          1 MOL1         0.0783
      27    O7      13.881106   20.139882   23.202197 O.3        1 MOL1        -0.5519
      28    H13     14.732961   20.580384   23.452400 H          1 MOL1         0.3769
      29    C9      15.019460   18.223820   22.174029 C.3        1 MOL1         0.1053
      30    H14     15.964146   18.579304   22.602902 H          1 MOL1         0.0783
      31    O8      14.397651   17.303193   23.076696 O.3        1 MOL1        -0.5519
      32    H15     14.050088   17.858946   23.809279 H          1 MOL1         0.3769
      33    C10     15.328145   17.514530   20.831979 C.3        1 MOL1         0.1018
      34    H16     14.429555   16.964201   20.523899 H          1 MOL1         0.0783
      35    C11     15.746522   18.507918   19.711088 C.3        1 MOL1         0.1043
      36    H17     16.756542   18.874884   19.936935 H          1 MOL1         0.0783
      37    O9      14.829619   19.630658   19.668641 O.3        1 MOL1        -0.3740
      38    C12     15.788498   17.868498   18.302289 C.3        1 MOL1         0.0138
      39    H18     16.649869   17.190161   18.251527 H          1 MOL1         0.0794
      40    H19     15.957143   18.662392   17.562531 H          1 MOL1         0.0794
      41    O10     14.585473   17.151159   17.996830 O.3        1 MOL1        -0.5486
      42    H20     14.672625   16.799885   17.084077 H          1 MOL1         0.3769
      43    C13     18.494809   23.946279   22.191000 C.3        1 MOL1         0.2972
      44    H21     18.966536   24.903817   22.446763 H          1 MOL1         0.0751
      45    O11     19.479605   22.954774   21.836995 O.3        1 MOL1        -0.3740
      46    C14     17.667700   23.429718   23.393521 C.3        1 MOL1         0.1003
      47    H22     16.868099   24.157937   23.581125 H          1 MOL1         0.0783
      48    O12     18.481232   23.309253   24.569260 O.3        1 MOL1        -0.5519
      49    H23     19.194538   22.656640   24.352931 H          1 MOL1         0.3769
      50    C15     17.016143   22.072706   23.054358 C.3        1 MOL1         0.1053
      51    H24     17.823296   21.347926   22.907131 H          1 MOL1         0.0783
      52    O13     16.184528   21.656748   24.141833 O.3        1 MOL1        -0.5519
      53    H25     16.705172   21.863066   24.949964 H          1 MOL1         0.3769
      54    C16     16.196833   22.144109   21.743941 C.3        1 MOL1         0.1018
      55    H26     15.239678   22.639996   21.953138 H          1 MOL1         0.0783
      56    C17     16.952788   22.880031   20.600959 C.3        1 MOL1         0.1043
      57    H27     17.725596   22.193798   20.240034 H          1 MOL1         0.0783
      58    O14     17.592588   24.097085   21.072049 O.3        1 MOL1        -0.3740
      59    C18     16.051697   23.230650   19.392910 C.3        1 MOL1         0.0138
      60    H28     15.777520   22.298542   18.880354 H          1 MOL1         0.0794
      61    H29     16.632805   23.833866   18.682502 H          1 MOL1         0.0794
      62    O15     14.867628   23.932384   19.791292 O.3        1 MOL1        -0.5486
      63    H30     14.381132   24.183002   18.975722 H          1 MOL1         0.3769
      64    C19     23.464918   22.613702   20.714676 C.3        1 MOL1         0.2972
      65    H31     24.461162   22.752002   20.275186 H          1 MOL1         0.0751
      66    O16     23.329956   21.320645   21.338585 O.3        1 MOL1        -0.3740
      67    C20     23.198266   23.684117   21.801047 C.3        1 MOL1         0.1003
      68    H32     23.295720   24.666331   21.320652 H          1 MOL1         0.0783
      69    O17     24.163498   23.577963   22.861156 O.3        1 MOL1        -0.5519
      70    H33     24.260311   22.615690   23.074475 H          1 MOL1         0.3769
      71    C21     21.759437   23.573881   22.368863 C.3        1 MOL1         0.1053
      72    H34     21.701792   22.666968   22.983928 H          1 MOL1         0.0783
      73    O18     21.500198   24.725201   23.178075 O.3        1 MOL1        -0.5519
      74    H35     22.253555   24.775440   23.806003 H          1 MOL1         0.3769
      75    C22     20.692533   23.461056   21.245572 C.3        1 MOL1         0.1018
      76    H36     20.545283   24.454455   20.802291 H          1 MOL1         0.0783
      77    C23     21.101102   22.460975   20.128725 C.3        1 MOL1         0.1043
      78    H37     21.066525   21.447555   20.543856 H          1 MOL1         0.0783
      79    O19     22.449756   22.749853   19.698693 O.3        1 MOL1        -0.3740
      80    C24     20.178929   22.466588   18.881535 C.3        1 MOL1         0.0138
      81    H38     19.391090   21.718305   19.030119 H          1 MOL1         0.0794
      82    H39     20.762893   22.134316   18.012854 H          1 MOL1         0.0794
      83    O20     19.590771   23.746875   18.614779 O.3        1 MOL1        -0.5486
      84    H40     19.010818   23.970911   19.378432 H          1 MOL1         0.3769
      85    C25     25.165380   17.602014   21.477358 C.3        1 MOL1         0.2972
      86    H41     25.857829   16.751888   21.428552 H          1 MOL1         0.0751
      87    O21     23.809165   17.180006   21.721728 O.3        1 MOL1        -0.3740
      88    C26     25.567518   18.574322   22.615037 C.3        1 MOL1         0.1003
      89    H42     26.572468   18.953388   22.388176 H          1 MOL1         0.0783
      90    O22     25.590834   17.903281   23.885332 O.3        1 MOL1        -0.5519
      91    H43     24.795311   17.314123   23.927878 H          1 MOL1         0.3769
      92    C27     24.598509   19.779933   22.657107 C.3        1 MOL1         0.1053
      93    H44     23.608166   19.403029   22.936523 H          1 MOL1         0.0783
      94    O23     25.047764   20.731576   23.627729 O.3        1 MOL1        -0.5519
      95    H45     25.285585   20.196833   24.417544 H          1 MOL1         0.3769
      96    C28     24.482626   20.459072   21.271339 C.3        1 MOL1         0.1018
      97    H46     25.407025   21.023837   21.091803 H          1 MOL1         0.0783
      98    C29     24.252545   19.435087   20.123304 C.3        1 MOL1         0.1043
      99    H47     23.230949   19.042487   20.212799 H          1 MOL1         0.0783
     100    O24     25.194970   18.340248   20.238109 O.3        1 MOL1        -0.3740
     101    C30     24.394909   20.041903   18.706425 C.3        1 MOL1         0.0138
     102    H48     23.522342   20.677650   18.507819 H          1 MOL1         0.0794
     103    H49     24.373550   19.225097   17.972680 H          1 MOL1         0.0794
     104    O25     25.598223   20.807674   18.563212 O.3        1 MOL1        -0.5486
     105    H50     25.647263   21.112732   17.631118 H          1 MOL1         0.3769
     106    C31     21.321116   13.900538   21.912746 C.3        1 MOL1         0.2972
     107    H51     20.863703   12.904484   21.974468 H          1 MOL1         0.0751
     108    O26     20.333362   14.927442   21.698225 O.3        1 MOL1        -0.3740
     109    C32     22.071556   14.211931   23.228500 C.3        1 MOL1         0.1003
     110    H52     22.871230   13.468096   23.339538 H          1 MOL1         0.0783
     111    O27     21.181150   14.122347   24.352338 O.3        1 MOL1        -0.5519
     112    H53     20.260340   14.160027   23.994602 H          1 MOL1         0.3769
     113    C33     22.723148   15.610452   23.157392 C.3        1 MOL1         0.1053
     114    H54     21.919610   16.353464   23.109921 H          1 MOL1         0.0783
     115    O28     23.513905   15.830297   24.329086 O.3        1 MOL1        -0.5519
     116    H55     22.943379   15.535171   25.073648 H          1 MOL1         0.3769
     117    C34     23.595231   15.765290   21.888100 C.3        1 MOL1         0.1018
     118    H56     24.533493   15.216528   22.043136 H          1 MOL1         0.0783
     119    C35     22.885358   15.257017   20.600823 C.3        1 MOL1         0.1043
     120    H57     22.107043   15.985986   20.343149 H          1 MOL1         0.0783
     121    O29     22.266920   13.962673   20.825194 O.3        1 MOL1        -0.3740
     122    C36     23.830648   15.141265   19.381374 C.3        1 MOL1         0.0138
     123    H58     24.111141   16.153095   19.059543 H          1 MOL1         0.0794
     124    H59     23.279940   14.676643   18.552428 H          1 MOL1         0.0794
     125    O30     25.009033   14.383846   19.683916 O.3        1 MOL1        -0.5486
     126    H60     25.536122   14.311145   18.858565 H          1 MOL1         0.3769
     127    C1      19.469990   17.329614   24.969102 C.3        1 MOL1        -0.1685
     128    H1      20.043094   16.652190   24.325705 H          1 MOL1         0.0832
     129    H2      18.946773   16.688524   25.691315 H          1 MOL1         0.0832
     130    C2      18.406693   18.085429   24.144409 C.3        1 MOL1        -0.1685
     131    H3      17.539494   17.425836   24.006769 H          1 MOL1         0.0832
     132    H4      18.020658   18.936316   24.719417 H          1 MOL1         0.0832
     133    C3      18.878094   18.544558   22.743254 C.3        1 MOL1        -0.1685
     134    H5      18.174764   19.295017   22.366564 H          1 MOL1         0.0832
     135    H6      18.781433   17.697835   22.057071 H          1 MOL1         0.0832
     136    C4      20.325633   19.087574   22.603675 C.3        1 MOL1        -0.1761
     137    H7      21.001868   18.248511   22.404255 H          1 MOL1         0.0832
     138    H8      20.365227   19.702107   21.698129 H          1 MOL1         0.0832
     139    C5      20.905958   19.913988   23.773560 C.3        1 MOL1         0.1218
     140    H9      21.751621   20.489789   23.376744 H          1 MOL1         0.0789
     141    C6      21.456747   19.031566   24.915833 C.3        1 MOL1        -0.1761
     142    H10     22.171812   18.313760   24.497143 H          1 MOL1         0.0832
     143    H11     22.043440   19.672405   25.586604 H          1 MOL1         0.0832
     144    C7      20.411286   18.264723   25.764159 C.3        1 MOL1        -0.1685
     145    H12     20.955785   17.658077   26.500159 H          1 MOL1         0.0832
     146    H13     19.815403   18.976511   26.350939 H          1 MOL1         0.0832
     147    O1      19.940215   20.814916   24.283771 O.3        1 MOL1        -0.5509
     148    H14     19.243318   20.219834   24.621724 H          1 MOL1         0.3779
@<TRIPOS>BOND
    1     1     2    1
    2     1     3    1
    3     1     4    1
    4     4     5    1
    5     4     6    1
    6     6     7    1
    7     4     8    1
    8     8     9    1
    9     8    10    1
   10    10    11    1
   11     8    12    1
   12    12    13    1
   13    12    14    1
   14    14    15    1
   15     1    16    1
   16    14    16    1
   17    14    17    1
   18    17    18    1
   19    17    19    1
   20    17    20    1
   21    20    21    1
   22    22    23    1
   23    22    24    1
   24    22    25    1
   25    25    26    1
   26    25    27    1
   27    27    28    1
   28    25    29    1
   29    29    30    1
   30    29    31    1
   31    31    32    1
   32     3    33    1
   33    29    33    1
   34    33    34    1
   35    33    35    1
   36    35    36    1
   37    22    37    1
   38    35    37    1
   39    35    38    1
   40    38    39    1
   41    38    40    1
   42    38    41    1
   43    41    42    1
   44    43    44    1
   45    43    45    1
   46    43    46    1
   47    46    47    1
   48    46    48    1
   49    48    49    1
   50    46    50    1
   51    50    51    1
   52    50    52    1
   53    52    53    1
   54    24    54    1
   55    50    54    1
   56    54    55    1
   57    54    56    1
   58    56    57    1
   59    43    58    1
   60    56    58    1
   61    56    59    1
   62    59    60    1
   63    59    61    1
   64    59    62    1
   65    62    63    1
   66    64    65    1
   67    64    66    1
   68    64    67    1
   69    67    68    1
   70    67    69    1
   71    69    70    1
   72    67    71    1
   73    71    72    1
   74    71    73    1
   75    73    74    1
   76    45    75    1
   77    71    75    1
   78    75    76    1
   79    75    77    1
   80    77    78    1
   81    64    79    1
   82    77    79    1
   83    77    80    1
   84    80    81    1
   85    80    82    1
   86    80    83    1
   87    83    84    1
   88    85    86    1
   89    85    87    1
   90    85    88    1
   91    88    89    1
   92    88    90    1
   93    90    91    1
   94    88    92    1
   95    92    93    1
   96    92    94    1
   97    94    95    1
   98    66    96    1
   99    92    96    1
  100    96    97    1
  101    96    98    1
  102    98    99    1
  103    85   100    1
  104    98   100    1
  105    98   101    1
  106   101   102    1
  107   101   103    1
  108   101   104    1
  109   104   105    1
  110   106   107    1
  111    12   108    1
  112   106   108    1
  113   106   109    1
  114   109   110    1
  115   109   111    1
  116   111   112    1
  117   109   113    1
  118   113   114    1
  119   113   115    1
  120   115   116    1
  121    87   117    1
  122   113   117    1
  123   117   118    1
  124   117   119    1
  125   119   120    1
  126   106   121    1
  127   119   121    1
  128   119   122    1
  129   122   123    1
  130   122   124    1
  131   122   125    1
  132   125   126    1
  133   127   128    1
  134   127   129    1
  135   127   130    1
  136   130   131    1
  137   130   132    1
  138   130   133    1
  139   133   134    1
  140   133   135    1
  141   133   136    1
  142   136   137    1
  143   136   138    1
  144   136   139    1
  145   139   140    1
  146   139   141    1
  147   141   142    1
  148   141   143    1
  149   127   144    1
  150   141   144    1
  151   144   145    1
  152   144   146    1
  153   139   147    1
  154   147   148    1
@<TRIPOS>SUBSTRUCTURE
       1 MOL1            1 RESIDUE      1      MOL     
       2 MOL1          148 RESIDUE      1      MOL     
@<SCITEGIC>MOL_PROPERTY
feprocess Rank
SciTegic.value.IntegerValue
1

@<SCITEGIC>MOL_PROPERTY
Conf_Id
SciTegic.value.IntegerValue
751

@<SCITEGIC>MOL_PROPERTY
Probability
SciTegic.value.DoubleValue
41.89

@<SCITEGIC>MOL_PROPERTY
G
SciTegic.value.DoubleValue
572.578

@<SCITEGIC>MOL_PROPERTY
E
SciTegic.value.DoubleValue
375.914

@<SCITEGIC>MOL_PROPERTY
-TS
SciTegic.value.DoubleValue
196.664

@<SCITEGIC>MOL_PROPERTY
U+W
SciTegic.value.DoubleValue
245.354

@<SCITEGIC>MOL_PROPERTY
U
SciTegic.value.DoubleValue
282.811

@<SCITEGIC>MOL_PROPERTY
W
SciTegic.value.DoubleValue
-37.458

@<SCITEGIC>MOL_PROPERTY
W(PB)
SciTegic.value.DoubleValue
-43.586

@<SCITEGIC>MOL_PROPERTY
W(SA)
SciTegic.value.DoubleValue
6.128

@<SCITEGIC>MOL_PROPERTY
Valence
SciTegic.value.DoubleValue
157.727

@<SCITEGIC>MOL_PROPERTY
Coulomb
SciTegic.value.DoubleValue
150.487

@<SCITEGIC>MOL_PROPERTY
VdW
SciTegic.value.DoubleValue
-25.403

@<SCITEGIC>MOL_PROPERTY
VdW6
SciTegic.value.DoubleValue
-181.708

@<SCITEGIC>MOL_PROPERTY
VdW12
SciTegic.value.DoubleValue
156.305

@<SCITEGIC>MOL_PROPERTY
Bond
SciTegic.value.DoubleValue
4.670

@<SCITEGIC>MOL_PROPERTY
Angle
SciTegic.value.DoubleValue
14.247

@<SCITEGIC>MOL_PROPERTY
Pdih
SciTegic.value.DoubleValue
138.809

@<SCITEGIC>MOL_PROPERTY
Idih
SciTegic.value.DoubleValue
0.000

@<SCITEGIC>MOL_PROPERTY
Tether
SciTegic.value.DoubleValue
0.000

