@<TRIPOS>MOLECULE
CD_guest-s14_fast_vm2_rndm.mol2 : feprocess host+ligand conformer 1
         152         157           2
SMALL
USER_CHARGES
 
@<TRIPOS>ATOM
       1    C1      16.188578   14.987435   20.797693 C.3        1 MOL1         0.2972
       2    H1      15.138070   14.840140   20.516024 H          1 MOL1         0.0751
       3    O1      16.488509   16.373421   21.067785 O.3        1 MOL1        -0.3740
       4    C2      16.541682   14.164241   22.061710 C.3        1 MOL1         0.1003
       5    H2      16.420699   13.102280   21.811060 H          1 MOL1         0.0783
       6    O2      15.676118   14.489546   23.160256 O.3        1 MOL1        -0.5519
       7    H3      15.600176   15.476844   23.199555 H          1 MOL1         0.3769
       8    C3      18.020625   14.401602   22.443405 C.3        1 MOL1         0.1053
       9    H4      18.131259   15.457433   22.719026 H          1 MOL1         0.0783
      10    O3      18.379221   13.575061   23.555927 O.3        1 MOL1        -0.5519
      11    H5      17.617327   13.636496   24.174320 H          1 MOL1         0.3769
      12    C4      18.958597   14.112085   21.246491 C.3        1 MOL1         0.1018
      13    H6      19.025515   13.023302   21.122772 H          1 MOL1         0.0783
      14    C5      18.470512   14.763199   19.918743 C.3        1 MOL1         0.1043
      15    H7      18.648170   15.843147   19.975683 H          1 MOL1         0.0783
      16    O4      17.051806   14.532838   19.735563 O.3        1 MOL1        -0.3740
      17    C6      19.205141   14.239376   18.661595 C.3        1 MOL1         0.0138
      18    H8      20.231525   14.626709   18.666883 H          1 MOL1         0.0794
      19    H9      18.712000   14.650177   17.770640 H          1 MOL1         0.0794
      20    O5      19.223614   12.807087   18.603943 O.3        1 MOL1        -0.5486
      21    H10     19.712323   12.550904   17.791898 H          1 MOL1         0.3769
      22    C7      14.860602   20.181485   20.970620 C.3        1 MOL1         0.2972
      23    H11     14.213472   21.063400   20.882129 H          1 MOL1         0.0751
      24    O6      16.256680   20.556129   20.994580 O.3        1 MOL1        -0.3740
      25    C8      14.503889   19.353762   22.236191 C.3        1 MOL1         0.1003
      26    H12     13.474780   18.994830   22.104009 H          1 MOL1         0.0783
      27    O7      14.564125   20.134984   23.438317 O.3        1 MOL1        -0.5519
      28    H13     15.511584   20.394896   23.561728 H          1 MOL1         0.3769
      29    C9      15.425879   18.117041   22.342343 C.3        1 MOL1         0.1053
      30    H14     16.454904   18.466706   22.490308 H          1 MOL1         0.0783
      31    O8      15.023114   17.317900   23.458435 O.3        1 MOL1        -0.5519
      32    H15     14.842052   17.960168   24.180695 H          1 MOL1         0.3769
      33    C10     15.370686   17.281038   21.039659 C.3        1 MOL1         0.1018
      34    H16     14.409033   16.751654   21.015047 H          1 MOL1         0.0783
      35    C11     15.522542   18.152361   19.761510 C.3        1 MOL1         0.1043
      36    H17     16.565574   18.486818   19.698692 H          1 MOL1         0.0783
      37    O9      14.657841   19.313706   19.835323 O.3        1 MOL1        -0.3740
      38    C12     15.203705   17.384614   18.456170 C.3        1 MOL1         0.0138
      39    H18     16.003273   16.652726   18.278576 H          1 MOL1         0.0794
      40    H19     15.219278   18.094818   17.618677 H          1 MOL1         0.0794
      41    O10     13.938068   16.714438   18.518812 O.3        1 MOL1        -0.5486
      42    H20     13.782472   16.290626   17.646718 H          1 MOL1         0.3769
      43    C13     18.742322   23.795765   21.888593 C.3        1 MOL1         0.2972
      44    H21     19.132543   24.759367   22.238871 H          1 MOL1         0.0751
      45    O11     19.696096   23.109761   21.051106 O.3        1 MOL1        -0.3740
      46    C14     18.366400   22.888236   23.092189 C.3        1 MOL1         0.1003
      47    H22     17.604014   23.424695   23.672145 H          1 MOL1         0.0783
      48    O12     19.490699   22.610111   23.942533 O.3        1 MOL1        -0.5519
      49    H23     20.119372   23.364622   23.848641 H          1 MOL1         0.3769
      50    C15     17.750946   21.559306   22.603346 C.3        1 MOL1         0.1053
      51    H24     18.526318   21.010868   22.055974 H          1 MOL1         0.0783
      52    O13     17.332020   20.805166   23.744367 O.3        1 MOL1        -0.5519
      53    H25     18.072647   20.909419   24.383416 H          1 MOL1         0.3769
      54    C16     16.568504   21.811393   21.636759 C.3        1 MOL1         0.1018
      55    H26     15.719728   22.199713   22.215141 H          1 MOL1         0.0783
      56    C17     16.945129   22.827130   20.522448 C.3        1 MOL1         0.1043
      57    H27     17.671740   22.348310   19.852714 H          1 MOL1         0.0783
      58    O14     17.544953   24.009414   21.110601 O.3        1 MOL1        -0.3740
      59    C18     15.740315   23.271040   19.658277 C.3        1 MOL1         0.0138
      60    H28     15.434564   22.425806   19.026841 H          1 MOL1         0.0794
      61    H29     16.068332   24.076913   18.988123 H          1 MOL1         0.0794
      62    O15     14.632240   23.706367   20.456619 O.3        1 MOL1        -0.5486
      63    H30     13.943355   24.050933   19.847258 H          1 MOL1         0.3769
      64    C19     23.774825   22.907725   20.587284 C.3        1 MOL1         0.2972
      65    H31     24.843663   23.006633   20.358068 H          1 MOL1         0.0751
      66    O16     23.424394   21.541457   20.903716 O.3        1 MOL1        -0.3740
      67    C20     23.350647   23.857945   21.736237 C.3        1 MOL1         0.1003
      68    H32     23.462983   24.883163   21.359483 H          1 MOL1         0.0783
      69    O17     24.172155   23.711478   22.903119 O.3        1 MOL1        -0.5519
      70    H33     23.974316   22.817058   23.278564 H          1 MOL1         0.3769
      71    C21     21.857300   23.641593   22.078884 C.3        1 MOL1         0.1053
      72    H34     21.741677   22.622763   22.471812 H          1 MOL1         0.0783
      73    O18     21.477913   24.594871   23.078687 O.3        1 MOL1        -0.5519
      74    H35     22.260221   24.665131   23.672421 H          1 MOL1         0.3769
      75    C22     20.958295   23.772021   20.813941 C.3        1 MOL1         0.1018
      76    H36     20.809905   24.836301   20.592923 H          1 MOL1         0.0783
      77    C23     21.558398   23.066323   19.562025 C.3        1 MOL1         0.1043
      78    H37     21.395543   21.988126   19.677856 H          1 MOL1         0.0783
      79    O19     22.984099   23.305998   19.448583 O.3        1 MOL1        -0.3740
      80    C24     20.878092   23.482084   18.234443 C.3        1 MOL1         0.0138
      81    H38     19.852220   23.089462   18.227809 H          1 MOL1         0.0794
      82    H39     21.414622   23.002097   17.405268 H          1 MOL1         0.0794
      83    O20     20.855636   24.902329   18.044576 O.3        1 MOL1        -0.5486
      84    H40     20.166937   25.272154   18.637241 H          1 MOL1         0.3769
      85    C25     24.702647   17.916772   22.407279 C.3        1 MOL1         0.2972
      86    H41     25.256848   17.084623   22.859668 H          1 MOL1         0.0751
      87    O21     23.499780   17.459022   21.755097 O.3        1 MOL1        -0.3740
      88    C26     24.323293   18.953832   23.492793 C.3        1 MOL1         0.1003
      89    H42     25.261082   19.306239   23.941806 H          1 MOL1         0.0783
      90    O22     23.499954   18.369946   24.517224 O.3        1 MOL1        -0.5519
      91    H43     23.621472   17.391338   24.461731 H          1 MOL1         0.3769
      92    C27     23.601739   20.169803   22.869493 C.3        1 MOL1         0.1053
      93    H44     22.626815   19.835419   22.500358 H          1 MOL1         0.0783
      94    O23     23.414882   21.150884   23.891925 O.3        1 MOL1        -0.5519
      95    H45     23.072145   20.641375   24.660844 H          1 MOL1         0.3769
      96    C28     24.372509   20.760082   21.659920 C.3        1 MOL1         0.1018
      97    H46     25.212789   21.363783   22.027120 H          1 MOL1         0.0783
      98    C29     24.889805   19.658675   20.692382 C.3        1 MOL1         0.1043
      99    H47     24.026290   19.253998   20.148665 H          1 MOL1         0.0783
     100    O24     25.526066   18.585692   21.429617 O.3        1 MOL1        -0.3740
     101    C30     25.886992   20.190032   19.635106 C.3        1 MOL1         0.0138
     102    H48     25.335419   20.817218   18.921659 H          1 MOL1         0.0794
     103    H49     26.291552   19.336475   19.074829 H          1 MOL1         0.0794
     104    O25     26.950193   20.948016   20.225908 O.3        1 MOL1        -0.5486
     105    H50     27.579195   21.187235   19.510465 H          1 MOL1         0.3769
     106    C31     21.385403   13.865684   21.405309 C.3        1 MOL1         0.2972
     107    H51     21.112601   12.816834   21.232713 H          1 MOL1         0.0751
     108    O26     20.225757   14.697028   21.599862 O.3        1 MOL1        -0.3740
     109    C32     22.248246   13.989493   22.683969 C.3        1 MOL1         0.1003
     110    H52     23.137824   13.361519   22.544726 H          1 MOL1         0.0783
     111    O27     21.515503   13.529135   23.831715 O.3        1 MOL1        -0.5519
     112    H53     20.564283   13.753854   23.677183 H          1 MOL1         0.3769
     113    C33     22.720012   15.449096   22.898257 C.3        1 MOL1         0.1053
     114    H54     21.837551   16.056352   23.137774 H          1 MOL1         0.0783
     115    O28     23.636674   15.474663   23.997779 O.3        1 MOL1        -0.5519
     116    H55     23.241543   14.870326   24.666892 H          1 MOL1         0.3769
     117    C34     23.370180   16.029824   21.609782 C.3        1 MOL1         0.1018
     118    H56     24.347323   15.557681   21.441087 H          1 MOL1         0.0783
     119    C35     22.484265   15.785841   20.360634 C.3        1 MOL1         0.1043
     120    H57     21.574762   16.392068   20.444213 H          1 MOL1         0.0783
     121    O29     22.152422   14.378721   20.297884 O.3        1 MOL1        -0.3740
     122    C36     23.201391   16.166648   19.046399 C.3        1 MOL1         0.0138
     123    H58     23.970781   15.414934   18.825167 H          1 MOL1         0.0794
     124    H59     23.708357   17.131017   19.179791 H          1 MOL1         0.0794
     125    O30     22.263375   16.264248   17.969263 O.3        1 MOL1        -0.5486
     126    H60     22.767687   16.452708   17.149823 H          1 MOL1         0.3769
     127    C1      20.651930   19.439003   18.014075 C.3        1 MOL1        -0.2400
     128    H1      20.530851   20.525993   18.076579 H          1 MOL1         0.0971
     129    H2      21.721659   19.204140   18.090814 H          1 MOL1         0.0971
     130    H3      20.308436   19.118603   17.022141 H          1 MOL1         0.0971
     131    C2      19.849113   18.726429   19.121049 C.3        1 MOL1        -0.1385
     132    H4      19.919682   17.640577   18.968644 H          1 MOL1         0.0960
     133    H5      18.787596   18.994284   19.033761 H          1 MOL1         0.0960
     134    C3      20.366516   19.085829   20.530437 C.3        1 MOL1        -0.1409
     135    H6      21.430918   18.825960   20.602637 H          1 MOL1         0.0960
     136    H7      20.295388   20.170135   20.689040 H          1 MOL1         0.0960
     137    C4      19.574422   18.348522   21.632770 C.3        1 MOL1        -0.1409
     138    H8      19.597252   17.269483   21.444412 H          1 MOL1         0.0960
     139    H9      18.521146   18.653872   21.593422 H          1 MOL1         0.0960
     140    C5      20.149977   18.623168   23.037256 C.3        1 MOL1        -0.1409
     141    H10     21.197408   18.302743   23.064178 H          1 MOL1         0.0960
     142    H11     20.140286   19.702596   23.243197 H          1 MOL1         0.0960
     143    C6      19.381272   17.871254   24.141241 C.3        1 MOL1        -0.1450
     144    H12     19.444467   16.790992   23.960255 H          1 MOL1         0.0960
     145    H13     18.318606   18.146701   24.113938 H          1 MOL1         0.0960
     146    C7      19.965083   18.185373   25.528025 C.3        1 MOL1         0.0172
     147    H14     21.024530   17.913284   25.551410 H          1 MOL1         0.0934
     148    H15     19.881407   19.256914   25.728739 H          1 MOL1         0.0934
     149    N1      19.262210   17.440576   26.643708 N.4        1 MOL1        -0.5956
     150    H16     19.663691   17.664000   27.560408 H          1 MOL1         0.3624
     151    H17     19.331748   16.424915   26.523529 H          1 MOL1         0.3624
     152    H18     18.265038   17.674504   26.685514 H          1 MOL1         0.3624
@<TRIPOS>BOND
    1     1     2    1
    2     1     3    1
    3     1     4    1
    4     4     5    1
    5     4     6    1
    6     6     7    1
    7     4     8    1
    8     8     9    1
    9     8    10    1
   10    10    11    1
   11     8    12    1
   12    12    13    1
   13    12    14    1
   14    14    15    1
   15     1    16    1
   16    14    16    1
   17    14    17    1
   18    17    18    1
   19    17    19    1
   20    17    20    1
   21    20    21    1
   22    22    23    1
   23    22    24    1
   24    22    25    1
   25    25    26    1
   26    25    27    1
   27    27    28    1
   28    25    29    1
   29    29    30    1
   30    29    31    1
   31    31    32    1
   32     3    33    1
   33    29    33    1
   34    33    34    1
   35    33    35    1
   36    35    36    1
   37    22    37    1
   38    35    37    1
   39    35    38    1
   40    38    39    1
   41    38    40    1
   42    38    41    1
   43    41    42    1
   44    43    44    1
   45    43    45    1
   46    43    46    1
   47    46    47    1
   48    46    48    1
   49    48    49    1
   50    46    50    1
   51    50    51    1
   52    50    52    1
   53    52    53    1
   54    24    54    1
   55    50    54    1
   56    54    55    1
   57    54    56    1
   58    56    57    1
   59    43    58    1
   60    56    58    1
   61    56    59    1
   62    59    60    1
   63    59    61    1
   64    59    62    1
   65    62    63    1
   66    64    65    1
   67    64    66    1
   68    64    67    1
   69    67    68    1
   70    67    69    1
   71    69    70    1
   72    67    71    1
   73    71    72    1
   74    71    73    1
   75    73    74    1
   76    45    75    1
   77    71    75    1
   78    75    76    1
   79    75    77    1
   80    77    78    1
   81    64    79    1
   82    77    79    1
   83    77    80    1
   84    80    81    1
   85    80    82    1
   86    80    83    1
   87    83    84    1
   88    85    86    1
   89    85    87    1
   90    85    88    1
   91    88    89    1
   92    88    90    1
   93    90    91    1
   94    88    92    1
   95    92    93    1
   96    92    94    1
   97    94    95    1
   98    66    96    1
   99    92    96    1
  100    96    97    1
  101    96    98    1
  102    98    99    1
  103    85   100    1
  104    98   100    1
  105    98   101    1
  106   101   102    1
  107   101   103    1
  108   101   104    1
  109   104   105    1
  110   106   107    1
  111    12   108    1
  112   106   108    1
  113   106   109    1
  114   109   110    1
  115   109   111    1
  116   111   112    1
  117   109   113    1
  118   113   114    1
  119   113   115    1
  120   115   116    1
  121    87   117    1
  122   113   117    1
  123   117   118    1
  124   117   119    1
  125   119   120    1
  126   106   121    1
  127   119   121    1
  128   119   122    1
  129   122   123    1
  130   122   124    1
  131   122   125    1
  132   125   126    1
  133   127   128    1
  134   127   129    1
  135   127   130    1
  136   127   131    1
  137   131   132    1
  138   131   133    1
  139   131   134    1
  140   134   135    1
  141   134   136    1
  142   134   137    1
  143   137   138    1
  144   137   139    1
  145   137   140    1
  146   140   141    1
  147   140   142    1
  148   140   143    1
  149   143   144    1
  150   143   145    1
  151   143   146    1
  152   146   147    1
  153   146   148    1
  154   146   149    1
  155   149   150    1
  156   149   151    1
  157   149   152    1
@<TRIPOS>SUBSTRUCTURE
       1 MOL1            1 RESIDUE      1      MOL     
       2 MOL1          152 RESIDUE      1      MOL     
@<SCITEGIC>MOL_PROPERTY
feprocess Rank
SciTegic.value.IntegerValue
1

@<SCITEGIC>MOL_PROPERTY
Conf_Id
SciTegic.value.IntegerValue
801

@<SCITEGIC>MOL_PROPERTY
Probability
SciTegic.value.DoubleValue
95.34

@<SCITEGIC>MOL_PROPERTY
G
SciTegic.value.DoubleValue
572.481

@<SCITEGIC>MOL_PROPERTY
E
SciTegic.value.DoubleValue
369.231

@<SCITEGIC>MOL_PROPERTY
-TS
SciTegic.value.DoubleValue
203.250

@<SCITEGIC>MOL_PROPERTY
U+W
SciTegic.value.DoubleValue
235.094

@<SCITEGIC>MOL_PROPERTY
U
SciTegic.value.DoubleValue
322.605

@<SCITEGIC>MOL_PROPERTY
W
SciTegic.value.DoubleValue
-87.509

@<SCITEGIC>MOL_PROPERTY
W(PB)
SciTegic.value.DoubleValue
-93.697

@<SCITEGIC>MOL_PROPERTY
W(SA)
SciTegic.value.DoubleValue
6.189

@<SCITEGIC>MOL_PROPERTY
Valence
SciTegic.value.DoubleValue
144.550

@<SCITEGIC>MOL_PROPERTY
Coulomb
SciTegic.value.DoubleValue
204.795

@<SCITEGIC>MOL_PROPERTY
VdW
SciTegic.value.DoubleValue
-26.740

@<SCITEGIC>MOL_PROPERTY
VdW6
SciTegic.value.DoubleValue
-181.149

@<SCITEGIC>MOL_PROPERTY
VdW12
SciTegic.value.DoubleValue
154.409

@<SCITEGIC>MOL_PROPERTY
Bond
SciTegic.value.DoubleValue
4.588

@<SCITEGIC>MOL_PROPERTY
Angle
SciTegic.value.DoubleValue
11.437

@<SCITEGIC>MOL_PROPERTY
Pdih
SciTegic.value.DoubleValue
128.526

@<SCITEGIC>MOL_PROPERTY
Idih
SciTegic.value.DoubleValue
0.000

@<SCITEGIC>MOL_PROPERTY
Tether
SciTegic.value.DoubleValue
0.000

