@<TRIPOS>MOLECULE
CD_guest-8_fast_vm2_rndm.mol2 : feprocess host+ligand conformer 1
         151         156           2
SMALL
USER_CHARGES
 
@<TRIPOS>ATOM
       1    C1      16.285812   15.298949   20.583169 C.3        1 MOL1         0.2972
       2    H1      15.238703   15.202122   20.269330 H          1 MOL1         0.0751
       3    O1      16.612051   16.669734   20.901162 O.3        1 MOL1        -0.3740
       4    C2      16.601143   14.365901   21.788430 C.3        1 MOL1         0.1003
       5    H2      16.440815   13.336526   21.442316 H          1 MOL1         0.0783
       6    O2      15.742107   14.606208   22.912369 O.3        1 MOL1        -0.5519
       7    H3      15.966862   15.508831   23.252801 H          1 MOL1         0.3769
       8    C3      18.086742   14.496154   22.202587 C.3        1 MOL1         0.1053
       9    H4      18.252327   15.514410   22.578672 H          1 MOL1         0.0783
      10    O3      18.389751   13.543207   23.227021 O.3        1 MOL1        -0.5519
      11    H5      17.637913   13.596101   23.858129 H          1 MOL1         0.3769
      12    C4      19.016943   14.273676   20.986782 C.3        1 MOL1         0.1018
      13    H6      18.998006   13.207993   20.723835 H          1 MOL1         0.0783
      14    C5      18.581565   15.115336   19.757111 C.3        1 MOL1         0.1043
      15    H7      18.743162   16.170627   19.999261 H          1 MOL1         0.0783
      16    O4      17.168115   14.898211   19.507521 O.3        1 MOL1        -0.3740
      17    C6      19.383692   14.836093   18.459817 C.3        1 MOL1         0.0138
      18    H8      20.268829   15.485669   18.454902 H          1 MOL1         0.0794
      19    H9      18.768716   15.129271   17.598592 H          1 MOL1         0.0794
      20    O5      19.797398   13.471016   18.330831 O.3        1 MOL1        -0.5486
      21    H10     20.618658   13.373127   18.864796 H          1 MOL1         0.3769
      22    C7      15.196059   20.337724   22.132881 C.3        1 MOL1         0.2972
      23    H11     14.630090   21.186032   22.536917 H          1 MOL1         0.0751
      24    O6      16.361726   20.780835   21.406650 O.3        1 MOL1        -0.3740
      25    C8      15.634189   19.404243   23.291751 C.3        1 MOL1         0.1003
      26    H12     14.721171   19.053410   23.789680 H          1 MOL1         0.0783
      27    O7      16.432212   20.137442   24.237011 O.3        1 MOL1        -0.5519
      28    H13     16.932243   19.496363   24.802790 H          1 MOL1         0.3769
      29    C9      16.385631   18.159772   22.756383 C.3        1 MOL1         0.1053
      30    H14     17.357767   18.490132   22.371392 H          1 MOL1         0.0783
      31    O8      16.565194   17.207350   23.814191 O.3        1 MOL1        -0.5519
      32    H15     17.179244   17.613893   24.479128 H          1 MOL1         0.3769
      33    C10     15.629315   17.471174   21.589323 C.3        1 MOL1         0.1018
      34    H16     14.812607   16.865058   22.001699 H          1 MOL1         0.0783
      35    C11     15.059569   18.477759   20.551975 C.3        1 MOL1         0.1043
      36    H17     15.904486   18.876028   19.976813 H          1 MOL1         0.0783
      37    O9      14.380440   19.569440   21.222902 O.3        1 MOL1        -0.3740
      38    C12     14.081717   17.837771   19.537603 C.3        1 MOL1         0.0138
      39    H18     14.657524   17.194876   18.858262 H          1 MOL1         0.0794
      40    H19     13.635741   18.636589   18.930056 H          1 MOL1         0.0794
      41    O10     13.057011   17.069614   20.180729 O.3        1 MOL1        -0.5486
      42    H20     12.432987   16.764146   19.486643 H          1 MOL1         0.3769
      43    C13     18.464797   24.064652   20.333656 C.3        1 MOL1         0.2972
      44    H21     18.940394   24.977546   19.952737 H          1 MOL1         0.0751
      45    O11     19.441235   23.121233   20.827382 O.3        1 MOL1        -0.3740
      46    C14     17.430369   24.385059   21.440042 C.3        1 MOL1         0.1003
      47    H22     16.624990   24.960455   20.964979 H          1 MOL1         0.0783
      48    O12     17.997730   25.176386   22.494177 O.3        1 MOL1        -0.5519
      49    H23     18.689520   24.617218   22.929422 H          1 MOL1         0.3769
      50    C15     16.810003   23.081185   22.000301 C.3        1 MOL1         0.1053
      51    H24     17.584406   22.554339   22.576046 H          1 MOL1         0.0783
      52    O13     15.721345   23.433828   22.860735 O.3        1 MOL1        -0.5519
      53    H25     16.088113   24.096407   23.485818 H          1 MOL1         0.3769
      54    C16     16.313280   22.121996   20.877346 C.3        1 MOL1         0.1018
      55    H26     15.290320   22.403889   20.599737 H          1 MOL1         0.0783
      56    C17     17.206922   22.105078   19.599663 C.3        1 MOL1         0.1043
      57    H27     18.061645   21.450006   19.797327 H          1 MOL1         0.0783
      58    O14     17.714930   23.423747   19.283450 O.3        1 MOL1        -0.3740
      59    C18     16.496671   21.537074   18.345503 C.3        1 MOL1         0.0138
      60    H28     16.379522   20.453035   18.468086 H          1 MOL1         0.0794
      61    H29     17.152377   21.692064   17.478354 H          1 MOL1         0.0794
      62    O15     15.219372   22.140434   18.103593 O.3        1 MOL1        -0.5486
      63    H30     14.592035   21.790335   18.771502 H          1 MOL1         0.3769
      64    C19     23.319534   22.660209   22.183863 C.3        1 MOL1         0.2972
      65    H31     24.345533   22.789952   22.552279 H          1 MOL1         0.0751
      66    O16     23.040959   21.284772   21.867273 O.3        1 MOL1        -0.3740
      67    C20     22.313342   23.115435   23.265110 C.3        1 MOL1         0.1003
      68    H32     22.496032   24.180556   23.458075 H          1 MOL1         0.0783
      69    O17     22.509365   22.374473   24.480141 O.3        1 MOL1        -0.5519
      70    H33     23.050407   21.581089   24.247694 H          1 MOL1         0.3769
      71    C21     20.859089   22.963085   22.763298 C.3        1 MOL1         0.1053
      72    H34     20.645027   21.893220   22.643461 H          1 MOL1         0.0783
      73    O18     19.979412   23.524105   23.741594 O.3        1 MOL1        -0.5519
      74    H35     20.272389   23.129368   24.593760 H          1 MOL1         0.3769
      75    C22     20.658613   23.651504   21.387627 C.3        1 MOL1         0.1018
      76    H36     20.606987   24.738270   21.535984 H          1 MOL1         0.0783
      77    C23     21.791135   23.303283   20.379421 C.3        1 MOL1         0.1043
      78    H37     21.653051   22.258848   20.075835 H          1 MOL1         0.0783
      79    O19     23.098504   23.446245   20.993852 O.3        1 MOL1        -0.3740
      80    C24     21.755205   24.158725   19.090934 C.3        1 MOL1         0.0138
      81    H38     20.877770   23.861072   18.500707 H          1 MOL1         0.0794
      82    H39     22.645605   23.927592   18.490824 H          1 MOL1         0.0794
      83    O20     21.695471   25.561706   19.376622 O.3        1 MOL1        -0.5486
      84    H40     21.752456   26.042663   18.522362 H          1 MOL1         0.3769
      85    C25     25.025899   17.653458   21.363697 C.3        1 MOL1         0.2972
      86    H41     25.762252   16.868557   21.148863 H          1 MOL1         0.0751
      87    O21     23.711209   17.112634   21.591626 O.3        1 MOL1        -0.3740
      88    C26     25.418094   18.452338   22.634863 C.3        1 MOL1         0.1003
      89    H42     26.389620   18.924699   22.439944 H          1 MOL1         0.0783
      90    O22     25.537811   17.587549   23.775296 O.3        1 MOL1        -0.5519
      91    H43     24.772299   16.958492   23.751804 H          1 MOL1         0.3769
      92    C27     24.387128   19.576790   22.910166 C.3        1 MOL1         0.1053
      93    H44     23.422687   19.111338   23.157930 H          1 MOL1         0.0783
      94    O23     24.831933   20.381308   24.006981 O.3        1 MOL1        -0.5519
      95    H45     25.137908   19.738711   24.685580 H          1 MOL1         0.3769
      96    C28     24.193834   20.454827   21.649440 C.3        1 MOL1         0.1018
      97    H46     25.103552   21.048218   21.488568 H          1 MOL1         0.0783
      98    C29     23.918126   19.602182   20.384121 C.3        1 MOL1         0.1043
      99    H47     22.944734   19.116664   20.510536 H          1 MOL1         0.0783
     100    O24     24.945262   18.587886   20.262942 O.3        1 MOL1        -0.3740
     101    C30     23.851044   20.415341   19.065389 C.3        1 MOL1         0.0138
     102    H48     22.816461   20.745095   18.917945 H          1 MOL1         0.0794
     103    H49     24.092525   19.747670   18.227761 H          1 MOL1         0.0794
     104    O25     24.718845   21.556215   19.056497 O.3        1 MOL1        -0.5486
     105    H50     24.337550   22.216495   19.680153 H          1 MOL1         0.3769
     106    C31     21.367050   13.723577   21.360984 C.3        1 MOL1         0.2972
     107    H51     20.962727   12.706783   21.277788 H          1 MOL1         0.0751
     108    O26     20.324866   14.715919   21.386781 O.3        1 MOL1        -0.3740
     109    C32     22.181119   13.860438   22.669272 C.3        1 MOL1         0.1003
     110    H52     23.017664   13.151519   22.617318 H          1 MOL1         0.0783
     111    O27     21.364465   13.549449   23.809827 O.3        1 MOL1        -0.5519
     112    H53     20.430921   13.775909   23.570273 H          1 MOL1         0.3769
     113    C33     22.766296   15.284801   22.794795 C.3        1 MOL1         0.1053
     114    H54     21.929997   15.985442   22.915563 H          1 MOL1         0.0783
     115    O28     23.617971   15.348296   23.942762 O.3        1 MOL1        -0.5519
     116    H55     23.110647   14.901363   24.656791 H          1 MOL1         0.3769
     117    C34     23.553726   15.684701   21.522611 C.3        1 MOL1         0.1018
     118    H56     24.517705   15.159298   21.525412 H          1 MOL1         0.0783
     119    C35     22.773119   15.369454   20.213892 C.3        1 MOL1         0.1043
     120    H57     21.941482   16.082121   20.136919 H          1 MOL1         0.0783
     121    O29     22.238250   14.019651   20.249541 O.3        1 MOL1        -0.3740
     122    C36     23.629404   15.525106   18.935026 C.3        1 MOL1         0.0138
     123    H58     23.834725   16.593094   18.781585 H          1 MOL1         0.0794
     124    H59     23.041388   15.179125   18.074465 H          1 MOL1         0.0794
     125    O30     24.862886   14.800255   19.020711 O.3        1 MOL1        -0.5486
     126    H60     25.332567   14.909903   18.165545 H          1 MOL1         0.3769
     127    C1      19.465169   18.421936   25.573991 C.2        1 MOL1         0.6168
     128    O1      20.212088   18.740684   26.477570 O.co2      1 MOL1        -0.6703
     129    O2      18.250162   18.481862   25.637180 O.co2      1 MOL1        -0.6703
     130    C2      20.074367   17.908527   24.274348 C.3        1 MOL1        -0.1963
     131    H1      19.493939   17.030778   23.969131 H          1 MOL1         0.0750
     132    H2      21.096451   17.566350   24.474332 H          1 MOL1         0.0750
     133    C3      20.076436   18.974765   23.150884 C.3        1 MOL1        -0.1860
     134    H3      19.129891   19.530754   23.174484 H          1 MOL1         0.0752
     135    H4      20.869663   19.707986   23.347106 H          1 MOL1         0.0752
     136    C4      20.269385   18.343467   21.755804 C.3        1 MOL1        -0.1858
     137    H5      19.565370   17.511967   21.629961 H          1 MOL1         0.0752
     138    H6      21.277226   17.923359   21.683192 H          1 MOL1         0.0752
     139    C5      20.039675   19.371656   20.630855 C.3        1 MOL1        -0.1858
     140    H7      19.004104   19.726671   20.691083 H          1 MOL1         0.0752
     141    H8      20.686990   20.242063   20.793072 H          1 MOL1         0.0752
     142    C6      20.302789   18.780409   19.228893 C.3        1 MOL1        -0.1858
     143    H9      19.641190   17.923986   19.059903 H          1 MOL1         0.0752
     144    H10     21.330310   18.401448   19.171545 H          1 MOL1         0.0752
     145    C7      20.066912   19.816652   18.111945 C.3        1 MOL1        -0.1834
     146    H11     19.003540   20.082146   18.080961 H          1 MOL1         0.0752
     147    H12     20.617415   20.741218   18.327604 H          1 MOL1         0.0752
     148    C8      20.494712   19.270392   16.735939 C.3        1 MOL1        -0.2849
     149    H13     19.933972   18.360980   16.483694 H          1 MOL1         0.0764
     150    H14     20.307574   20.013417   15.950084 H          1 MOL1         0.0764
     151    H15     21.565193   19.027706   16.725023 H          1 MOL1         0.0764
@<TRIPOS>BOND
    1     1     2    1
    2     1     3    1
    3     1     4    1
    4     4     5    1
    5     4     6    1
    6     6     7    1
    7     4     8    1
    8     8     9    1
    9     8    10    1
   10    10    11    1
   11     8    12    1
   12    12    13    1
   13    12    14    1
   14    14    15    1
   15     1    16    1
   16    14    16    1
   17    14    17    1
   18    17    18    1
   19    17    19    1
   20    17    20    1
   21    20    21    1
   22    22    23    1
   23    22    24    1
   24    22    25    1
   25    25    26    1
   26    25    27    1
   27    27    28    1
   28    25    29    1
   29    29    30    1
   30    29    31    1
   31    31    32    1
   32     3    33    1
   33    29    33    1
   34    33    34    1
   35    33    35    1
   36    35    36    1
   37    22    37    1
   38    35    37    1
   39    35    38    1
   40    38    39    1
   41    38    40    1
   42    38    41    1
   43    41    42    1
   44    43    44    1
   45    43    45    1
   46    43    46    1
   47    46    47    1
   48    46    48    1
   49    48    49    1
   50    46    50    1
   51    50    51    1
   52    50    52    1
   53    52    53    1
   54    24    54    1
   55    50    54    1
   56    54    55    1
   57    54    56    1
   58    56    57    1
   59    43    58    1
   60    56    58    1
   61    56    59    1
   62    59    60    1
   63    59    61    1
   64    59    62    1
   65    62    63    1
   66    64    65    1
   67    64    66    1
   68    64    67    1
   69    67    68    1
   70    67    69    1
   71    69    70    1
   72    67    71    1
   73    71    72    1
   74    71    73    1
   75    73    74    1
   76    45    75    1
   77    71    75    1
   78    75    76    1
   79    75    77    1
   80    77    78    1
   81    64    79    1
   82    77    79    1
   83    77    80    1
   84    80    81    1
   85    80    82    1
   86    80    83    1
   87    83    84    1
   88    85    86    1
   89    85    87    1
   90    85    88    1
   91    88    89    1
   92    88    90    1
   93    90    91    1
   94    88    92    1
   95    92    93    1
   96    92    94    1
   97    94    95    1
   98    66    96    1
   99    92    96    1
  100    96    97    1
  101    96    98    1
  102    98    99    1
  103    85   100    1
  104    98   100    1
  105    98   101    1
  106   101   102    1
  107   101   103    1
  108   101   104    1
  109   104   105    1
  110   106   107    1
  111    12   108    1
  112   106   108    1
  113   106   109    1
  114   109   110    1
  115   109   111    1
  116   111   112    1
  117   109   113    1
  118   113   114    1
  119   113   115    1
  120   115   116    1
  121    87   117    1
  122   113   117    1
  123   117   118    1
  124   117   119    1
  125   119   120    1
  126   106   121    1
  127   119   121    1
  128   119   122    1
  129   122   123    1
  130   122   124    1
  131   122   125    1
  132   125   126    1
  133   127   128    1
  134   127   129    2
  135   127   130    1
  136   130   131    1
  137   130   132    1
  138   130   133    1
  139   133   134    1
  140   133   135    1
  141   133   136    1
  142   136   137    1
  143   136   138    1
  144   136   139    1
  145   139   140    1
  146   139   141    1
  147   139   142    1
  148   142   143    1
  149   142   144    1
  150   142   145    1
  151   145   146    1
  152   145   147    1
  153   145   148    1
  154   148   149    1
  155   148   150    1
  156   148   151    1
@<TRIPOS>SUBSTRUCTURE
       1 MOL1            1 RESIDUE      1      MOL     
       2 MOL1          151 RESIDUE      1      MOL     
@<SCITEGIC>MOL_PROPERTY
feprocess Rank
SciTegic.value.IntegerValue
1

@<SCITEGIC>MOL_PROPERTY
Conf_Id
SciTegic.value.IntegerValue
462

@<SCITEGIC>MOL_PROPERTY
Probability
SciTegic.value.DoubleValue
49.45

@<SCITEGIC>MOL_PROPERTY
G
SciTegic.value.DoubleValue
514.375

@<SCITEGIC>MOL_PROPERTY
E
SciTegic.value.DoubleValue
317.646

@<SCITEGIC>MOL_PROPERTY
-TS
SciTegic.value.DoubleValue
196.729

@<SCITEGIC>MOL_PROPERTY
U+W
SciTegic.value.DoubleValue
184.404

@<SCITEGIC>MOL_PROPERTY
U
SciTegic.value.DoubleValue
262.153

@<SCITEGIC>MOL_PROPERTY
W
SciTegic.value.DoubleValue
-77.749

@<SCITEGIC>MOL_PROPERTY
W(PB)
SciTegic.value.DoubleValue
-83.890

@<SCITEGIC>MOL_PROPERTY
W(SA)
SciTegic.value.DoubleValue
6.141

@<SCITEGIC>MOL_PROPERTY
Valence
SciTegic.value.DoubleValue
153.444

@<SCITEGIC>MOL_PROPERTY
Coulomb
SciTegic.value.DoubleValue
136.516

@<SCITEGIC>MOL_PROPERTY
VdW
SciTegic.value.DoubleValue
-27.808

@<SCITEGIC>MOL_PROPERTY
VdW6
SciTegic.value.DoubleValue
-188.662

@<SCITEGIC>MOL_PROPERTY
VdW12
SciTegic.value.DoubleValue
160.854

@<SCITEGIC>MOL_PROPERTY
Bond
SciTegic.value.DoubleValue
4.867

@<SCITEGIC>MOL_PROPERTY
Angle
SciTegic.value.DoubleValue
14.347

@<SCITEGIC>MOL_PROPERTY
Pdih
SciTegic.value.DoubleValue
134.230

@<SCITEGIC>MOL_PROPERTY
Idih
SciTegic.value.DoubleValue
0.000

@<SCITEGIC>MOL_PROPERTY
Tether
SciTegic.value.DoubleValue
0.000

@<TRIPOS>MOLECULE
CD_guest-8_fast_vm2_rndm.mol2 : feprocess host+ligand conformer 2
         151         156           2
SMALL
USER_CHARGES
 
@<TRIPOS>ATOM
       1    C1      16.133124   14.984005   20.805956 C.3        1 MOL1         0.2972
       2    H1      15.072632   14.843345   20.561260 H          1 MOL1         0.0751
       3    O1      16.436937   16.355677   21.134384 O.3        1 MOL1        -0.3740
       4    C2      16.535893   14.114847   22.022720 C.3        1 MOL1         0.1003
       5    H2      16.392372   13.063453   21.741659 H          1 MOL1         0.0783
       6    O2      15.719142   14.413633   23.165936 O.3        1 MOL1        -0.5519
       7    H3      15.619794   15.398850   23.209507 H          1 MOL1         0.3769
       8    C3      18.033174   14.322837   22.354024 C.3        1 MOL1         0.1053
       9    H4      18.166343   15.359238   22.693013 H          1 MOL1         0.0783
      10    O3      18.426444   13.422477   23.394926 O.3        1 MOL1        -0.5519
      11    H5      17.709309   13.480729   24.064966 H          1 MOL1         0.3769
      12    C4      18.924356   14.104329   21.105622 C.3        1 MOL1         0.1018
      13    H6      18.996526   13.025626   20.916896 H          1 MOL1         0.0783
      14    C5      18.379072   14.831289   19.841943 C.3        1 MOL1         0.1043
      15    H7      18.527099   15.908604   19.971628 H          1 MOL1         0.0783
      16    O4      16.961125   14.578060   19.694906 O.3        1 MOL1        -0.3740
      17    C6      19.090226   14.438211   18.524023 C.3        1 MOL1         0.0138
      18    H8      20.088805   14.894482   18.511738 H          1 MOL1         0.0794
      19    H9      18.528551   14.873315   17.686812 H          1 MOL1         0.0794
      20    O5      19.200745   13.019872   18.354311 O.3        1 MOL1        -0.5486
      21    H10     20.024097   12.731960   18.801700 H          1 MOL1         0.3769
      22    C7      14.870145   20.198816   21.101601 C.3        1 MOL1         0.2972
      23    H11     14.230541   21.086437   21.017491 H          1 MOL1         0.0751
      24    O6      16.264035   20.562496   21.204695 O.3        1 MOL1        -0.3740
      25    C8      14.459079   19.332013   22.322768 C.3        1 MOL1         0.1003
      26    H12     13.430033   18.994448   22.143139 H          1 MOL1         0.0783
      27    O7      14.488075   20.075356   23.549903 O.3        1 MOL1        -0.5519
      28    H13     15.421941   20.379643   23.682464 H          1 MOL1         0.3769
      29    C9      15.356277   18.074908   22.419037 C.3        1 MOL1         0.1053
      30    H14     16.385155   18.398894   22.625259 H          1 MOL1         0.0783
      31    O8      14.888668   17.236249   23.480542 O.3        1 MOL1        -0.5519
      32    H15     14.724636   17.846402   24.233814 H          1 MOL1         0.3769
      33    C10     15.343554   17.290700   21.083164 C.3        1 MOL1         0.1018
      34    H16     14.373040   16.786092   20.989582 H          1 MOL1         0.0783
      35    C11     15.576557   18.210925   19.853353 C.3        1 MOL1         0.1043
      36    H17     16.622656   18.539902   19.867393 H          1 MOL1         0.0783
      37    O9      14.714319   19.373977   19.927367 O.3        1 MOL1        -0.3740
      38    C12     15.330737   17.502058   18.500135 C.3        1 MOL1         0.0138
      39    H18     16.135163   16.771910   18.339253 H          1 MOL1         0.0794
      40    H19     15.401426   18.247003   17.696393 H          1 MOL1         0.0794
      41    O10     14.059024   16.841297   18.458661 O.3        1 MOL1        -0.5486
      42    H20     13.960520   16.442479   17.566894 H          1 MOL1         0.3769
      43    C13     18.723207   23.831404   21.956246 C.3        1 MOL1         0.2972
      44    H21     19.137761   24.801808   22.254319 H          1 MOL1         0.0751
      45    O11     19.654209   23.080064   21.146658 O.3        1 MOL1        -0.3740
      46    C14     18.342540   23.002539   23.213487 C.3        1 MOL1         0.1003
      47    H22     17.586904   23.576900   23.764502 H          1 MOL1         0.0783
      48    O12     19.495211   22.829413   24.051312 O.3        1 MOL1        -0.5519
      49    H23     19.317791   22.123646   24.723455 H          1 MOL1         0.3769
      50    C15     17.702701   21.646713   22.814244 C.3        1 MOL1         0.1053
      51    H24     18.473779   21.024993   22.342661 H          1 MOL1         0.0783
      52    O13     17.169831   20.993746   23.975151 O.3        1 MOL1        -0.5519
      53    H25     17.927612   20.785466   24.582241 H          1 MOL1         0.3769
      54    C16     16.550841   21.849341   21.793895 C.3        1 MOL1         0.1018
      55    H26     15.682753   22.251307   22.333174 H          1 MOL1         0.0783
      56    C17     16.931323   22.814756   20.637059 C.3        1 MOL1         0.1043
      57    H27     17.659982   22.304605   19.993193 H          1 MOL1         0.0783
      58    O14     17.525625   24.022609   21.174232 O.3        1 MOL1        -0.3740
      59    C18     15.733864   23.218884   19.743285 C.3        1 MOL1         0.0138
      60    H28     15.433741   22.345926   19.147907 H          1 MOL1         0.0794
      61    H29     16.068944   23.992797   19.039836 H          1 MOL1         0.0794
      62    O15     14.618417   23.691680   20.509635 O.3        1 MOL1        -0.5486
      63    H30     13.936200   24.008354   19.878208 H          1 MOL1         0.3769
      64    C19     23.663372   22.788323   20.502276 C.3        1 MOL1         0.2972
      65    H31     24.722552   22.821938   20.216805 H          1 MOL1         0.0751
      66    O16     23.287093   21.486523   20.996583 O.3        1 MOL1        -0.3740
      67    C20     23.334494   23.862391   21.566516 C.3        1 MOL1         0.1003
      68    H32     23.512577   24.838639   21.097033 H          1 MOL1         0.0783
      69    O17     24.181113   23.744999   22.720464 O.3        1 MOL1        -0.5519
      70    H33     23.974274   22.871596   23.141287 H          1 MOL1         0.3769
      71    C21     21.841143   23.801335   21.974370 C.3        1 MOL1         0.1053
      72    H34     21.689356   22.891576   22.572636 H          1 MOL1         0.0783
      73    O18     21.554027   24.964470   22.759566 O.3        1 MOL1        -0.5519
      74    H35     22.170172   24.922145   23.522187 H          1 MOL1         0.3769
      75    C22     20.877798   23.737819   20.749409 C.3        1 MOL1         0.1018
      76    H36     20.679029   24.759880   20.404962 H          1 MOL1         0.0783
      77    C23     21.415363   22.890403   19.558525 C.3        1 MOL1         0.1043
      78    H37     21.243483   21.833041   19.792989 H          1 MOL1         0.0783
      79    O19     22.835636   23.090966   19.362466 O.3        1 MOL1        -0.3740
      80    C24     20.684460   23.169659   18.222391 C.3        1 MOL1         0.0138
      81    H38     19.652579   22.802367   18.305196 H          1 MOL1         0.0794
      82    H39     21.174053   22.584921   17.432402 H          1 MOL1         0.0794
      83    O20     20.680342   24.559098   17.869864 O.3        1 MOL1        -0.5486
      84    H40     20.044534   25.015432   18.460945 H          1 MOL1         0.3769
      85    C25     24.736536   17.887200   22.380375 C.3        1 MOL1         0.2972
      86    H41     25.323536   17.048861   22.777652 H          1 MOL1         0.0751
      87    O21     23.446128   17.454143   21.909798 O.3        1 MOL1        -0.3740
      88    C26     24.518276   18.948225   23.485365 C.3        1 MOL1         0.1003
      89    H42     25.504516   19.328098   23.781065 H          1 MOL1         0.0783
      90    O22     23.890770   18.339676   24.623564 O.3        1 MOL1        -0.5519
      91    H43     23.460787   17.511942   24.304940 H          1 MOL1         0.3769
      92    C27     23.693642   20.143284   22.942773 C.3        1 MOL1         0.1053
      93    H44     22.684458   19.792144   22.705932 H          1 MOL1         0.0783
      94    O23     23.612627   21.178837   23.929651 O.3        1 MOL1        -0.5519
      95    H45     22.955933   20.855908   24.607744 H          1 MOL1         0.3769
      96    C28     24.313159   20.701837   21.634450 C.3        1 MOL1         0.1018
      97    H46     25.196538   21.302175   21.889206 H          1 MOL1         0.0783
      98    C29     24.697919   19.586031   20.620410 C.3        1 MOL1         0.1043
      99    H47     23.765857   19.185937   20.202758 H          1 MOL1         0.0783
     100    O24     25.420836   18.512799   21.275917 O.3        1 MOL1        -0.3740
     101    C30     25.546722   20.092712   19.430018 C.3        1 MOL1         0.0138
     102    H48     24.907533   20.710343   18.784572 H          1 MOL1         0.0794
     103    H49     25.869399   19.227196   18.835763 H          1 MOL1         0.0794
     104    O25     26.682173   20.853271   19.861103 O.3        1 MOL1        -0.5486
     105    H50     27.215712   21.069546   19.065523 H          1 MOL1         0.3769
     106    C31     21.372247   13.887248   21.216932 C.3        1 MOL1         0.2972
     107    H51     21.120593   12.849765   20.964425 H          1 MOL1         0.0751
     108    O26     20.196732   14.687511   21.434861 O.3        1 MOL1        -0.3740
     109    C32     22.199512   13.935604   22.527377 C.3        1 MOL1         0.1003
     110    H52     23.114670   13.352173   22.362770 H          1 MOL1         0.0783
     111    O27     21.460718   13.358399   23.616291 O.3        1 MOL1        -0.5519
     112    H53     20.510247   13.605916   23.489215 H          1 MOL1         0.3769
     113    C33     22.613466   15.389788   22.863753 C.3        1 MOL1         0.1053
     114    H54     21.705098   15.962794   23.095397 H          1 MOL1         0.0783
     115    O28     23.485940   15.385092   23.997044 O.3        1 MOL1        -0.5519
     116    H55     23.067617   14.766659   24.636931 H          1 MOL1         0.3769
     117    C34     23.310057   16.047910   21.646702 C.3        1 MOL1         0.1018
     118    H56     24.284878   15.567823   21.488787 H          1 MOL1         0.0783
     119    C35     22.460490   15.900246   20.357361 C.3        1 MOL1         0.1043
     120    H57     21.530071   16.463566   20.493538 H          1 MOL1         0.0783
     121    O29     22.147894   14.498410   20.160629 O.3        1 MOL1        -0.3740
     122    C36     23.139066   16.457546   19.079306 C.3        1 MOL1         0.0138
     123    H58     22.877337   17.519045   18.987502 H          1 MOL1         0.0794
     124    H59     22.713375   15.949378   18.203968 H          1 MOL1         0.0794
     125    O30     24.565771   16.317067   19.089711 O.3        1 MOL1        -0.5486
     126    H60     24.912422   16.914062   19.791989 H          1 MOL1         0.3769
     127    C1      20.286434   19.957382   25.625455 C.2        1 MOL1         0.6168
     128    O1      19.273903   20.619195   25.766364 O.co2      1 MOL1        -0.6703
     129    O2      21.402778   20.437103   25.576721 O.co2      1 MOL1        -0.6703
     130    C2      20.128279   18.457774   25.382277 C.3        1 MOL1        -0.1963
     131    H1      19.573309   18.040264   26.229790 H          1 MOL1         0.0750
     132    H2      21.124814   18.000489   25.395749 H          1 MOL1         0.0750
     133    C3      19.402984   18.108539   24.055820 C.3        1 MOL1        -0.1860
     134    H3      19.320265   17.017812   23.965029 H          1 MOL1         0.0752
     135    H4      18.379707   18.504748   24.079822 H          1 MOL1         0.0752
     136    C4      20.155650   18.673884   22.835079 C.3        1 MOL1        -0.1858
     137    H5      21.172001   18.268788   22.837309 H          1 MOL1         0.0752
     138    H6      20.248467   19.764417   22.924510 H          1 MOL1         0.0752
     139    C5      19.481376   18.322489   21.497148 C.3        1 MOL1        -0.1858
     140    H7      19.514213   17.237324   21.367009 H          1 MOL1         0.0752
     141    H8      18.424086   18.614032   21.518763 H          1 MOL1         0.0752
     142    C6      20.185201   19.030031   20.319928 C.3        1 MOL1        -0.1858
     143    H9      21.273289   18.919943   20.417696 H          1 MOL1         0.0752
     144    H10     19.969159   20.104268   20.379717 H          1 MOL1         0.0752
     145    C7      19.735862   18.484629   18.949217 C.3        1 MOL1        -0.1834
     146    H11     19.988305   17.419771   18.874535 H          1 MOL1         0.0752
     147    H12     18.645770   18.564150   18.855303 H          1 MOL1         0.0752
     148    C8      20.403872   19.247883   17.789292 C.3        1 MOL1        -0.2849
     149    H13     21.497846   19.204738   17.863868 H          1 MOL1         0.0764
     150    H14     20.110637   18.817128   16.823393 H          1 MOL1         0.0764
     151    H15     20.101303   20.301703   17.794193 H          1 MOL1         0.0764
@<TRIPOS>BOND
    1     1     2    1
    2     1     3    1
    3     1     4    1
    4     4     5    1
    5     4     6    1
    6     6     7    1
    7     4     8    1
    8     8     9    1
    9     8    10    1
   10    10    11    1
   11     8    12    1
   12    12    13    1
   13    12    14    1
   14    14    15    1
   15     1    16    1
   16    14    16    1
   17    14    17    1
   18    17    18    1
   19    17    19    1
   20    17    20    1
   21    20    21    1
   22    22    23    1
   23    22    24    1
   24    22    25    1
   25    25    26    1
   26    25    27    1
   27    27    28    1
   28    25    29    1
   29    29    30    1
   30    29    31    1
   31    31    32    1
   32     3    33    1
   33    29    33    1
   34    33    34    1
   35    33    35    1
   36    35    36    1
   37    22    37    1
   38    35    37    1
   39    35    38    1
   40    38    39    1
   41    38    40    1
   42    38    41    1
   43    41    42    1
   44    43    44    1
   45    43    45    1
   46    43    46    1
   47    46    47    1
   48    46    48    1
   49    48    49    1
   50    46    50    1
   51    50    51    1
   52    50    52    1
   53    52    53    1
   54    24    54    1
   55    50    54    1
   56    54    55    1
   57    54    56    1
   58    56    57    1
   59    43    58    1
   60    56    58    1
   61    56    59    1
   62    59    60    1
   63    59    61    1
   64    59    62    1
   65    62    63    1
   66    64    65    1
   67    64    66    1
   68    64    67    1
   69    67    68    1
   70    67    69    1
   71    69    70    1
   72    67    71    1
   73    71    72    1
   74    71    73    1
   75    73    74    1
   76    45    75    1
   77    71    75    1
   78    75    76    1
   79    75    77    1
   80    77    78    1
   81    64    79    1
   82    77    79    1
   83    77    80    1
   84    80    81    1
   85    80    82    1
   86    80    83    1
   87    83    84    1
   88    85    86    1
   89    85    87    1
   90    85    88    1
   91    88    89    1
   92    88    90    1
   93    90    91    1
   94    88    92    1
   95    92    93    1
   96    92    94    1
   97    94    95    1
   98    66    96    1
   99    92    96    1
  100    96    97    1
  101    96    98    1
  102    98    99    1
  103    85   100    1
  104    98   100    1
  105    98   101    1
  106   101   102    1
  107   101   103    1
  108   101   104    1
  109   104   105    1
  110   106   107    1
  111    12   108    1
  112   106   108    1
  113   106   109    1
  114   109   110    1
  115   109   111    1
  116   111   112    1
  117   109   113    1
  118   113   114    1
  119   113   115    1
  120   115   116    1
  121    87   117    1
  122   113   117    1
  123   117   118    1
  124   117   119    1
  125   119   120    1
  126   106   121    1
  127   119   121    1
  128   119   122    1
  129   122   123    1
  130   122   124    1
  131   122   125    1
  132   125   126    1
  133   127   128    1
  134   127   129    2
  135   127   130    1
  136   130   131    1
  137   130   132    1
  138   130   133    1
  139   133   134    1
  140   133   135    1
  141   133   136    1
  142   136   137    1
  143   136   138    1
  144   136   139    1
  145   139   140    1
  146   139   141    1
  147   139   142    1
  148   142   143    1
  149   142   144    1
  150   142   145    1
  151   145   146    1
  152   145   147    1
  153   145   148    1
  154   148   149    1
  155   148   150    1
  156   148   151    1
@<TRIPOS>SUBSTRUCTURE
       1 MOL1            1 RESIDUE      1      MOL     
       2 MOL1          151 RESIDUE      1      MOL     
@<SCITEGIC>MOL_PROPERTY
feprocess Rank
SciTegic.value.IntegerValue
2

@<SCITEGIC>MOL_PROPERTY
Conf_Id
SciTegic.value.IntegerValue
784

@<SCITEGIC>MOL_PROPERTY
Probability
SciTegic.value.DoubleValue
16.16

@<SCITEGIC>MOL_PROPERTY
G
SciTegic.value.DoubleValue
515.041

@<SCITEGIC>MOL_PROPERTY
E
SciTegic.value.DoubleValue
316.645

@<SCITEGIC>MOL_PROPERTY
-TS
SciTegic.value.DoubleValue
198.396

@<SCITEGIC>MOL_PROPERTY
U+W
SciTegic.value.DoubleValue
183.403

@<SCITEGIC>MOL_PROPERTY
U
SciTegic.value.DoubleValue
258.178

@<SCITEGIC>MOL_PROPERTY
W
SciTegic.value.DoubleValue
-74.775

@<SCITEGIC>MOL_PROPERTY
W(PB)
SciTegic.value.DoubleValue
-80.879

@<SCITEGIC>MOL_PROPERTY
W(SA)
SciTegic.value.DoubleValue
6.104

@<SCITEGIC>MOL_PROPERTY
Valence
SciTegic.value.DoubleValue
152.054

@<SCITEGIC>MOL_PROPERTY
Coulomb
SciTegic.value.DoubleValue
134.233

@<SCITEGIC>MOL_PROPERTY
VdW
SciTegic.value.DoubleValue
-28.109

@<SCITEGIC>MOL_PROPERTY
VdW6
SciTegic.value.DoubleValue
-191.859

@<SCITEGIC>MOL_PROPERTY
VdW12
SciTegic.value.DoubleValue
163.751

@<SCITEGIC>MOL_PROPERTY
Bond
SciTegic.value.DoubleValue
5.023

@<SCITEGIC>MOL_PROPERTY
Angle
SciTegic.value.DoubleValue
13.880

@<SCITEGIC>MOL_PROPERTY
Pdih
SciTegic.value.DoubleValue
133.133

@<SCITEGIC>MOL_PROPERTY
Idih
SciTegic.value.DoubleValue
0.018

@<SCITEGIC>MOL_PROPERTY
Tether
SciTegic.value.DoubleValue
0.000

@<TRIPOS>MOLECULE
CD_guest-8_fast_vm2_rndm.mol2 : feprocess host+ligand conformer 3
         151         156           2
SMALL
USER_CHARGES
 
@<TRIPOS>ATOM
       1    C1      16.250372   15.288335   20.664451 C.3        1 MOL1         0.2972
       2    H1      15.239573   15.142324   20.262297 H          1 MOL1         0.0751
       3    O1      16.462487   16.651539   21.088408 O.3        1 MOL1        -0.3740
       4    C2      16.518088   14.345386   21.865992 C.3        1 MOL1         0.1003
       5    H2      16.454400   13.314231   21.495873 H          1 MOL1         0.0783
       6    O2      15.525344   14.531411   22.886820 O.3        1 MOL1        -0.5519
       7    H3      15.609135   15.462875   23.210096 H          1 MOL1         0.3769
       8    C3      17.959122   14.571277   22.398392 C.3        1 MOL1         0.1053
       9    H4      18.024564   15.600621   22.777352 H          1 MOL1         0.0783
      10    O3      18.265818   13.657116   23.455041 O.3        1 MOL1        -0.5519
      11    H5      18.837235   14.183407   24.072873 H          1 MOL1         0.3769
      12    C4      18.997188   14.409355   21.255035 C.3        1 MOL1         0.1018
      13    H6      19.035651   13.348899   20.974044 H          1 MOL1         0.0783
      14    C5      18.610348   15.255156   20.007269 C.3        1 MOL1         0.1043
      15    H7      18.708963   16.313759   20.273104 H          1 MOL1         0.0783
      16    O4      17.232423   14.981463   19.652041 O.3        1 MOL1        -0.3740
      17    C6      19.478360   15.014037   18.744650 C.3        1 MOL1         0.0138
      18    H8      20.335092   15.696151   18.768320 H          1 MOL1         0.0794
      19    H9      18.887890   15.288346   17.860268 H          1 MOL1         0.0794
      20    O5      19.940852   13.663964   18.623714 O.3        1 MOL1        -0.5486
      21    H10     20.690439   13.561165   19.255986 H          1 MOL1         0.3769
      22    C7      14.679486   20.315083   21.635399 C.3        1 MOL1         0.2972
      23    H11     14.020781   21.183113   21.767947 H          1 MOL1         0.0751
      24    O6      16.056931   20.704940   21.490012 O.3        1 MOL1        -0.3740
      25    C8      14.583149   19.386066   22.866404 C.3        1 MOL1         0.1003
      26    H12     13.551593   19.015404   22.926748 H          1 MOL1         0.0783
      27    O7      14.902069   20.109377   24.066396 O.3        1 MOL1        -0.5519
      28    H13     15.465831   20.875532   23.796989 H          1 MOL1         0.3769
      29    C9      15.523617   18.171324   22.698474 C.3        1 MOL1         0.1053
      30    H14     16.554974   18.542630   22.721604 H          1 MOL1         0.0783
      31    O8      15.315935   17.269748   23.788876 O.3        1 MOL1        -0.5519
      32    H15     15.316138   17.840524   24.589398 H          1 MOL1         0.3769
      33    C10     15.291034   17.450973   21.342931 C.3        1 MOL1         0.1018
      34    H16     14.382514   16.839294   21.422243 H          1 MOL1         0.0783
      35    C11     15.173155   18.437409   20.144851 C.3        1 MOL1         0.1043
      36    H17     16.180608   18.818102   19.934880 H          1 MOL1         0.0783
      37    O9      14.304979   19.555316   20.467996 O.3        1 MOL1        -0.3740
      38    C12     14.658641   17.774642   18.844981 C.3        1 MOL1         0.0138
      39    H18     15.440963   17.105066   18.462313 H          1 MOL1         0.0794
      40    H19     14.501545   18.557111   18.090405 H          1 MOL1         0.0794
      41    O10     13.448815   17.036915   19.058330 O.3        1 MOL1        -0.5486
      42    H20     13.142328   16.707977   18.185285 H          1 MOL1         0.3769
      43    C13     18.490489   23.976547   20.716419 C.3        1 MOL1         0.2972
      44    H21     18.907558   24.942649   20.404620 H          1 MOL1         0.0751
      45    O11     19.531945   23.038901   21.061286 O.3        1 MOL1        -0.3740
      46    C14     17.522153   24.142434   21.920718 C.3        1 MOL1         0.1003
      47    H22     16.694313   24.778868   21.582027 H          1 MOL1         0.0783
      48    O12     18.156923   24.772396   23.043095 O.3        1 MOL1        -0.5519
      49    H23     18.891388   24.173896   23.332601 H          1 MOL1         0.3769
      50    C15     16.929882   22.771063   22.327782 C.3        1 MOL1         0.1053
      51    H24     17.748294   22.138189   22.699569 H          1 MOL1         0.0783
      52    O13     15.950097   22.950343   23.356094 O.3        1 MOL1        -0.5519
      53    H25     16.353709   23.586653   23.987585 H          1 MOL1         0.3769
      54    C16     16.289061   22.068492   21.105821 C.3        1 MOL1         0.1018
      55    H26     15.360131   22.591717   20.843514 H          1 MOL1         0.0783
      56    C17     17.233537   22.052466   19.874117 C.3        1 MOL1         0.1043
      57    H27     18.075849   21.394542   20.108481 H          1 MOL1         0.0783
      58    O14     17.725673   23.395248   19.635004 O.3        1 MOL1        -0.3740
      59    C18     16.600006   21.503676   18.568848 C.3        1 MOL1         0.0138
      60    H28     16.800025   20.426172   18.514325 H          1 MOL1         0.0794
      61    H29     17.112724   21.961340   17.712325 H          1 MOL1         0.0794
      62    O15     15.188438   21.734044   18.479407 O.3        1 MOL1        -0.5486
      63    H30     14.752843   21.103653   19.099185 H          1 MOL1         0.3769
      64    C19     23.539271   22.660768   22.002029 C.3        1 MOL1         0.2972
      65    H31     24.589903   22.799527   22.287892 H          1 MOL1         0.0751
      66    O16     23.298130   21.338546   21.482739 O.3        1 MOL1        -0.3740
      67    C20     22.613993   22.898218   23.222298 C.3        1 MOL1         0.1003
      68    H32     22.757660   23.938869   23.540964 H          1 MOL1         0.0783
      69    O17     22.941775   22.023895   24.314256 O.3        1 MOL1        -0.5519
      70    H33     23.716474   21.479749   24.030789 H          1 MOL1         0.3769
      71    C21     21.131277   22.719836   22.825615 C.3        1 MOL1         0.1053
      72    H34     20.978326   21.663059   22.576390 H          1 MOL1         0.0783
      73    O18     20.307241   23.074718   23.940037 O.3        1 MOL1        -0.5519
      74    H35     20.716600   22.608949   24.703793 H          1 MOL1         0.3769
      75    C22     20.764258   23.573568   21.583544 C.3        1 MOL1         0.1018
      76    H36     20.660178   24.621557   21.894162 H          1 MOL1         0.0783
      77    C23     21.821013   23.457605   20.447641 C.3        1 MOL1         0.1043
      78    H37     21.722915   22.460714   19.997793 H          1 MOL1         0.0783
      79    O19     23.162498   23.608322   20.980992 O.3        1 MOL1        -0.3740
      80    C24     21.624991   24.489898   19.311774 C.3        1 MOL1         0.0138
      81    H38     20.726955   24.213857   18.742561 H          1 MOL1         0.0794
      82    H39     22.479614   24.421329   18.625449 H          1 MOL1         0.0794
      83    O20     21.492110   25.826760   19.811204 O.3        1 MOL1        -0.5486
      84    H40     21.453522   26.431194   19.038127 H          1 MOL1         0.3769
      85    C25     25.105496   17.656963   21.027260 C.3        1 MOL1         0.2972
      86    H41     25.752236   16.799031   20.803110 H          1 MOL1         0.0751
      87    O21     23.764942   17.248616   21.370493 O.3        1 MOL1        -0.3740
      88    C26     25.675790   18.494000   22.199592 C.3        1 MOL1         0.1003
      89    H42     26.639456   18.902885   21.868818 H          1 MOL1         0.0783
      90    O22     25.891381   17.691159   23.369340 O.3        1 MOL1        -0.5519
      91    H43     25.059185   17.177823   23.533331 H          1 MOL1         0.3769
      92    C27     24.737902   19.685156   22.513814 C.3        1 MOL1         0.1053
      93    H44     23.782679   19.285142   22.883171 H          1 MOL1         0.0783
      94    O23     25.342893   20.503554   23.520233 O.3        1 MOL1        -0.5519
      95    H45     25.724917   19.866378   24.166109 H          1 MOL1         0.3769
      96    C28     24.456640   20.520870   21.235858 C.3        1 MOL1         0.1018
      97    H46     25.339400   21.130807   21.006350 H          1 MOL1         0.0783
      98    C29     24.111290   19.643586   19.999143 C.3        1 MOL1         0.1043
      99    H47     23.097969   19.244773   20.131660 H          1 MOL1         0.0783
     100    O24     25.035718   18.534835   19.884787 O.3        1 MOL1        -0.3740
     101    C30     24.123934   20.434072   18.666690 C.3        1 MOL1         0.0138
     102    H48     23.277668   21.133264   18.664526 H          1 MOL1         0.0794
     103    H49     23.963223   19.726922   17.842144 H          1 MOL1         0.0794
     104    O25     25.343113   21.159077   18.462153 O.3        1 MOL1        -0.5486
     105    H50     25.318584   21.949752   19.042194 H          1 MOL1         0.3769
     106    C31     21.332800   13.903309   21.806152 C.3        1 MOL1         0.2972
     107    H51     20.936089   12.884584   21.901583 H          1 MOL1         0.0751
     108    O26     20.267809   14.876936   21.757407 O.3        1 MOL1        -0.3740
     109    C32     22.267203   14.209105   23.004458 C.3        1 MOL1         0.1003
     110    H52     23.126275   13.531304   22.919889 H          1 MOL1         0.0783
     111    O27     21.617444   13.948619   24.256398 O.3        1 MOL1        -0.5519
     112    H53     20.999013   14.705728   24.437780 H          1 MOL1         0.3769
     113    C33     22.802740   15.657363   22.898704 C.3        1 MOL1         0.1053
     114    H54     21.952181   16.348248   22.906191 H          1 MOL1         0.0783
     115    O28     23.660767   15.962566   24.002025 O.3        1 MOL1        -0.5519
     116    H55     23.031282   16.162844   24.745264 H          1 MOL1         0.3769
     117    C34     23.545499   15.836425   21.553746 C.3        1 MOL1         0.1018
     118    H56     24.485845   15.270906   21.592069 H          1 MOL1         0.0783
     119    C35     22.678666   15.357558   20.355045 C.3        1 MOL1         0.1043
     120    H57     21.858291   16.077181   20.244457 H          1 MOL1         0.0783
     121    O29     22.120977   14.036917   20.602118 O.3        1 MOL1        -0.3740
     122    C36     23.451861   15.320986   19.015506 C.3        1 MOL1         0.0138
     123    H58     23.664889   16.353935   18.708120 H          1 MOL1         0.0794
     124    H59     22.804666   14.877952   18.246727 H          1 MOL1         0.0794
     125    O30     24.676163   14.583756   19.122893 O.3        1 MOL1        -0.5486
     126    H60     25.088013   14.559223   18.231963 H          1 MOL1         0.3769
     127    C1      20.172800   16.835450   25.029866 C.2        1 MOL1         0.6168
     128    O1      21.336240   16.895338   25.380355 O.co2      1 MOL1        -0.6703
     129    O2      19.603735   15.783202   24.810521 O.co2      1 MOL1        -0.6703
     130    C2      19.393427   18.134706   24.839935 C.3        1 MOL1        -0.1963
     131    H1      19.450906   18.684136   25.786279 H          1 MOL1         0.0750
     132    H2      18.336947   17.887291   24.680112 H          1 MOL1         0.0750
     133    C3      19.908591   19.039062   23.688535 C.3        1 MOL1        -0.1860
     134    H3      19.394365   20.007719   23.748497 H          1 MOL1         0.0752
     135    H4      20.979527   19.241170   23.831259 H          1 MOL1         0.0752
     136    C4      19.672819   18.429412   22.288426 C.3        1 MOL1        -0.1858
     137    H5      18.613643   18.178340   22.167469 H          1 MOL1         0.0752
     138    H6      20.227903   17.490333   22.192847 H          1 MOL1         0.0752
     139    C5      20.102038   19.398942   21.169379 C.3        1 MOL1        -0.1858
     140    H7      19.583241   20.353845   21.306141 H          1 MOL1         0.0752
     141    H8      21.175626   19.602713   21.259448 H          1 MOL1         0.0752
     142    C6      19.786745   18.840325   19.767370 C.3        1 MOL1        -0.1858
     143    H9      18.709191   18.642894   19.689278 H          1 MOL1         0.0752
     144    H10     20.304497   17.882655   19.638209 H          1 MOL1         0.0752
     145    C7      20.218631   19.801431   18.642102 C.3        1 MOL1        -0.1834
     146    H11     19.763694   20.789129   18.787690 H          1 MOL1         0.0752
     147    H12     21.303083   19.946848   18.683831 H          1 MOL1         0.0752
     148    C8      19.829824   19.254533   17.254857 C.3        1 MOL1        -0.2849
     149    H13     18.743022   19.123631   17.174592 H          1 MOL1         0.0764
     150    H14     20.147563   19.946005   16.463957 H          1 MOL1         0.0764
     151    H15     20.306661   18.283536   17.068497 H          1 MOL1         0.0764
@<TRIPOS>BOND
    1     1     2    1
    2     1     3    1
    3     1     4    1
    4     4     5    1
    5     4     6    1
    6     6     7    1
    7     4     8    1
    8     8     9    1
    9     8    10    1
   10    10    11    1
   11     8    12    1
   12    12    13    1
   13    12    14    1
   14    14    15    1
   15     1    16    1
   16    14    16    1
   17    14    17    1
   18    17    18    1
   19    17    19    1
   20    17    20    1
   21    20    21    1
   22    22    23    1
   23    22    24    1
   24    22    25    1
   25    25    26    1
   26    25    27    1
   27    27    28    1
   28    25    29    1
   29    29    30    1
   30    29    31    1
   31    31    32    1
   32     3    33    1
   33    29    33    1
   34    33    34    1
   35    33    35    1
   36    35    36    1
   37    22    37    1
   38    35    37    1
   39    35    38    1
   40    38    39    1
   41    38    40    1
   42    38    41    1
   43    41    42    1
   44    43    44    1
   45    43    45    1
   46    43    46    1
   47    46    47    1
   48    46    48    1
   49    48    49    1
   50    46    50    1
   51    50    51    1
   52    50    52    1
   53    52    53    1
   54    24    54    1
   55    50    54    1
   56    54    55    1
   57    54    56    1
   58    56    57    1
   59    43    58    1
   60    56    58    1
   61    56    59    1
   62    59    60    1
   63    59    61    1
   64    59    62    1
   65    62    63    1
   66    64    65    1
   67    64    66    1
   68    64    67    1
   69    67    68    1
   70    67    69    1
   71    69    70    1
   72    67    71    1
   73    71    72    1
   74    71    73    1
   75    73    74    1
   76    45    75    1
   77    71    75    1
   78    75    76    1
   79    75    77    1
   80    77    78    1
   81    64    79    1
   82    77    79    1
   83    77    80    1
   84    80    81    1
   85    80    82    1
   86    80    83    1
   87    83    84    1
   88    85    86    1
   89    85    87    1
   90    85    88    1
   91    88    89    1
   92    88    90    1
   93    90    91    1
   94    88    92    1
   95    92    93    1
   96    92    94    1
   97    94    95    1
   98    66    96    1
   99    92    96    1
  100    96    97    1
  101    96    98    1
  102    98    99    1
  103    85   100    1
  104    98   100    1
  105    98   101    1
  106   101   102    1
  107   101   103    1
  108   101   104    1
  109   104   105    1
  110   106   107    1
  111    12   108    1
  112   106   108    1
  113   106   109    1
  114   109   110    1
  115   109   111    1
  116   111   112    1
  117   109   113    1
  118   113   114    1
  119   113   115    1
  120   115   116    1
  121    87   117    1
  122   113   117    1
  123   117   118    1
  124   117   119    1
  125   119   120    1
  126   106   121    1
  127   119   121    1
  128   119   122    1
  129   122   123    1
  130   122   124    1
  131   122   125    1
  132   125   126    1
  133   127   128    1
  134   127   129    2
  135   127   130    1
  136   130   131    1
  137   130   132    1
  138   130   133    1
  139   133   134    1
  140   133   135    1
  141   133   136    1
  142   136   137    1
  143   136   138    1
  144   136   139    1
  145   139   140    1
  146   139   141    1
  147   139   142    1
  148   142   143    1
  149   142   144    1
  150   142   145    1
  151   145   146    1
  152   145   147    1
  153   145   148    1
  154   148   149    1
  155   148   150    1
  156   148   151    1
@<TRIPOS>SUBSTRUCTURE
       1 MOL1            1 RESIDUE      1      MOL     
       2 MOL1          151 RESIDUE      1      MOL     
@<SCITEGIC>MOL_PROPERTY
feprocess Rank
SciTegic.value.IntegerValue
3

@<SCITEGIC>MOL_PROPERTY
Conf_Id
SciTegic.value.IntegerValue
464

@<SCITEGIC>MOL_PROPERTY
Probability
SciTegic.value.DoubleValue
6.29

@<SCITEGIC>MOL_PROPERTY
G
SciTegic.value.DoubleValue
515.604

@<SCITEGIC>MOL_PROPERTY
E
SciTegic.value.DoubleValue
316.897

@<SCITEGIC>MOL_PROPERTY
-TS
SciTegic.value.DoubleValue
198.707

@<SCITEGIC>MOL_PROPERTY
U+W
SciTegic.value.DoubleValue
183.655

@<SCITEGIC>MOL_PROPERTY
U
SciTegic.value.DoubleValue
256.419

@<SCITEGIC>MOL_PROPERTY
W
SciTegic.value.DoubleValue
-72.764

@<SCITEGIC>MOL_PROPERTY
W(PB)
SciTegic.value.DoubleValue
-78.799

@<SCITEGIC>MOL_PROPERTY
W(SA)
SciTegic.value.DoubleValue
6.035

@<SCITEGIC>MOL_PROPERTY
Valence
SciTegic.value.DoubleValue
155.458

@<SCITEGIC>MOL_PROPERTY
Coulomb
SciTegic.value.DoubleValue
128.214

@<SCITEGIC>MOL_PROPERTY
VdW
SciTegic.value.DoubleValue
-27.252

@<SCITEGIC>MOL_PROPERTY
VdW6
SciTegic.value.DoubleValue
-192.537

@<SCITEGIC>MOL_PROPERTY
VdW12
SciTegic.value.DoubleValue
165.285

@<SCITEGIC>MOL_PROPERTY
Bond
SciTegic.value.DoubleValue
5.088

@<SCITEGIC>MOL_PROPERTY
Angle
SciTegic.value.DoubleValue
14.407

@<SCITEGIC>MOL_PROPERTY
Pdih
SciTegic.value.DoubleValue
135.963

@<SCITEGIC>MOL_PROPERTY
Idih
SciTegic.value.DoubleValue
0.000

@<SCITEGIC>MOL_PROPERTY
Tether
SciTegic.value.DoubleValue
0.000

@<TRIPOS>MOLECULE
CD_guest-8_fast_vm2_rndm.mol2 : feprocess host+ligand conformer 4
         151         156           2
SMALL
USER_CHARGES
 
@<TRIPOS>ATOM
       1    C1      16.271342   15.137948   20.806290 C.3        1 MOL1         0.2972
       2    H1      15.272610   14.920244   20.406900 H          1 MOL1         0.0751
       3    O1      16.393411   16.515519   21.214373 O.3        1 MOL1        -0.3740
       4    C2      16.548357   14.264684   22.054508 C.3        1 MOL1         0.1003
       5    H2      16.442492   13.215973   21.747907 H          1 MOL1         0.0783
       6    O2      15.589655   14.555330   23.085339 O.3        1 MOL1        -0.5519
       7    H3      15.434362   15.532118   23.063258 H          1 MOL1         0.3769
       8    C3      17.993458   14.459209   22.585970 C.3        1 MOL1         0.1053
       9    H4      18.064992   15.457024   23.042762 H          1 MOL1         0.0783
      10    O3      18.254338   13.449562   23.566358 O.3        1 MOL1        -0.5519
      11    H5      17.535388   13.539599   24.228613 H          1 MOL1         0.3769
      12    C4      19.048092   14.374620   21.449514 C.3        1 MOL1         0.1018
      13    H6      19.173225   13.322709   21.161397 H          1 MOL1         0.0783
      14    C5      18.631766   15.198511   20.199737 C.3        1 MOL1         0.1043
      15    H7      18.658122   16.260542   20.466504 H          1 MOL1         0.0783
      16    O4      17.283878   14.840420   19.823401 O.3        1 MOL1        -0.3740
      17    C6      19.544623   15.016759   18.959000 C.3        1 MOL1         0.0138
      18    H8      20.318638   15.793184   18.979529 H          1 MOL1         0.0794
      19    H9      18.947709   15.200081   18.055629 H          1 MOL1         0.0794
      20    O5      20.153029   13.720449   18.887227 O.3        1 MOL1        -0.5486
      21    H10     20.752014   13.630777   19.664236 H          1 MOL1         0.3769
      22    C7      14.845557   20.305966   20.519546 C.3        1 MOL1         0.2972
      23    H11     14.248522   21.177813   20.222890 H          1 MOL1         0.0751
      24    O6      16.161331   20.693379   20.964285 O.3        1 MOL1        -0.3740
      25    C8      14.139454   19.494782   21.638439 C.3        1 MOL1         0.1003
      26    H12     13.194148   19.124687   21.220613 H          1 MOL1         0.0783
      27    O7      13.849224   20.305229   22.786626 O.3        1 MOL1        -0.5519
      28    H13     14.713683   20.656110   23.119780 H          1 MOL1         0.3769
      29    C9      14.995192   18.266373   22.033664 C.3        1 MOL1         0.1053
      30    H14     15.933068   18.627060   22.479456 H          1 MOL1         0.0783
      31    O8      14.281359   17.467221   22.984260 O.3        1 MOL1        -0.5519
      32    H15     13.920611   18.106822   23.637580 H          1 MOL1         0.3769
      33    C10     15.343984   17.409076   20.791664 C.3        1 MOL1         0.1018
      34    H16     14.439662   16.865761   20.488024 H          1 MOL1         0.0783
      35    C11     15.866839   18.267564   19.603497 C.3        1 MOL1         0.1043
      36    H17     16.874251   18.613756   19.856289 H          1 MOL1         0.0783
      37    O9      15.005523   19.416254   19.395261 O.3        1 MOL1        -0.3740
      38    C12     15.967677   17.502704   18.262684 C.3        1 MOL1         0.0138
      39    H18     16.823863   16.819074   18.312175 H          1 MOL1         0.0794
      40    H19     16.181360   18.226674   17.464704 H          1 MOL1         0.0794
      41    O10     14.771713   16.770540   17.964974 O.3        1 MOL1        -0.5486
      42    H20     14.898542   16.335947   17.094052 H          1 MOL1         0.3769
      43    C13     18.463961   23.969222   22.087392 C.3        1 MOL1         0.2972
      44    H21     18.834145   24.953947   22.400004 H          1 MOL1         0.0751
      45    O11     19.540661   23.087694   21.712508 O.3        1 MOL1        -0.3740
      46    C14     17.650927   23.312948   23.233088 C.3        1 MOL1         0.1003
      47    H22     16.789259   23.963079   23.433384 H          1 MOL1         0.0783
      48    O12     18.426804   23.187356   24.434853 O.3        1 MOL1        -0.5519
      49    H23     19.373288   23.340065   24.191265 H          1 MOL1         0.3769
      50    C15     17.109529   21.932137   22.800371 C.3        1 MOL1         0.1053
      51    H24     17.966969   21.266121   22.645153 H          1 MOL1         0.0783
      52    O13     16.279385   21.415756   23.844366 O.3        1 MOL1        -0.5519
      53    H25     16.790567   21.581410   24.668603 H          1 MOL1         0.3769
      54    C16     16.317665   22.034151   21.471539 C.3        1 MOL1         0.1018
      55    H26     15.349600   22.511145   21.674711 H          1 MOL1         0.0783
      56    C17     17.093512   22.843942   20.393017 C.3        1 MOL1         0.1043
      57    H27     17.947894   22.237350   20.067510 H          1 MOL1         0.0783
      58    O14     17.584864   24.093025   20.948638 O.3        1 MOL1        -0.3740
      59    C18     16.253097   23.159425   19.133038 C.3        1 MOL1         0.0138
      60    H28     16.096163   22.224632   18.577446 H          1 MOL1         0.0794
      61    H29     16.832129   23.830650   18.484775 H          1 MOL1         0.0794
      62    O15     14.988366   23.748846   19.460794 O.3        1 MOL1        -0.5486
      63    H30     14.543824   23.987568   18.618454 H          1 MOL1         0.3769
      64    C19     23.654013   22.768112   21.427517 C.3        1 MOL1         0.2972
      65    H31     24.733993   22.929607   21.317106 H          1 MOL1         0.0751
      66    O16     23.327545   21.367770   21.504838 O.3        1 MOL1        -0.3740
      67    C20     23.154983   23.438769   22.727870 C.3        1 MOL1         0.1003
      68    H32     23.348029   24.515980   22.640980 H          1 MOL1         0.0783
      69    O17     23.862754   22.919659   23.865061 O.3        1 MOL1        -0.5519
      70    H33     24.136550   21.996965   23.636121 H          1 MOL1         0.3769
      71    C21     21.631660   23.236310   22.898170 C.3        1 MOL1         0.1053
      72    H34     21.445817   22.167207   23.071905 H          1 MOL1         0.0783
      73    O18     21.187800   23.996820   24.024715 O.3        1 MOL1        -0.5519
      74    H35     21.865250   23.834586   24.719960 H          1 MOL1         0.3769
      75    C22     20.858278   23.663336   21.624021 C.3        1 MOL1         0.1018
      76    H36     20.826630   24.759095   21.573342 H          1 MOL1         0.0783
      77    C23     21.500186   23.109990   20.319967 C.3        1 MOL1         0.1043
      78    H37     21.318084   22.029929   20.284566 H          1 MOL1         0.0783
      79    O19     22.932458   23.341536   20.316692 O.3        1 MOL1        -0.3740
      80    C24     20.894661   23.713514   19.028441 C.3        1 MOL1         0.0138
      81    H38     19.873887   23.328652   18.905237 H          1 MOL1         0.0794
      82    H39     21.480845   23.359361   18.170020 H          1 MOL1         0.0794
      83    O20     20.866381   25.145508   19.047671 O.3        1 MOL1        -0.5486
      84    H40     20.105498   25.418080   19.603698 H          1 MOL1         0.3769
      85    C25     24.872497   17.593570   20.643482 C.3        1 MOL1         0.2972
      86    H41     25.474449   16.750646   20.280499 H          1 MOL1         0.0751
      87    O21     23.596650   17.151469   21.147786 O.3        1 MOL1        -0.3740
      88    C26     25.620906   18.388281   21.750052 C.3        1 MOL1         0.1003
      89    H42     26.537016   18.785603   21.294036 H          1 MOL1         0.0783
      90    O22     25.985817   17.554812   22.860086 O.3        1 MOL1        -0.5519
      91    H43     25.143852   17.215200   23.256878 H          1 MOL1         0.3769
      92    C27     24.769660   19.592494   22.225292 C.3        1 MOL1         0.1053
      93    H44     23.867140   19.206888   22.721389 H          1 MOL1         0.0783
      94    O23     25.527722   20.387944   23.143345 O.3        1 MOL1        -0.5519
      95    H45     25.936147   19.744813   23.764506 H          1 MOL1         0.3769
      96    C28     24.331754   20.460215   21.019745 C.3        1 MOL1         0.1018
      97    H46     25.213654   20.985889   20.630730 H          1 MOL1         0.0783
      98    C29     23.704796   19.607548   19.884042 C.3        1 MOL1         0.1043
      99    H47     22.759073   19.198030   20.254254 H          1 MOL1         0.0783
     100    O24     24.605280   18.516601   19.562027 O.3        1 MOL1        -0.3740
     101    C30     23.372708   20.388633   18.585511 C.3        1 MOL1         0.0138
     102    H48     22.354051   20.787818   18.670413 H          1 MOL1         0.0794
     103    H49     23.365198   19.681767   17.745194 H          1 MOL1         0.0794
     104    O25     24.283917   21.461234   18.319231 O.3        1 MOL1        -0.5486
     105    H50     24.009969   22.216293   18.889774 H          1 MOL1         0.3769
     106    C31     21.284901   14.005412   22.376328 C.3        1 MOL1         0.2972
     107    H51     20.835160   13.067392   22.726726 H          1 MOL1         0.0751
     108    O26     20.276235   14.943120   21.946596 O.3        1 MOL1        -0.3740
     109    C32     22.133472   14.637905   23.507721 C.3        1 MOL1         0.1003
     110    H52     22.973812   13.959114   23.701283 H          1 MOL1         0.0783
     111    O27     21.367854   14.772592   24.714956 O.3        1 MOL1        -0.5519
     112    H53     20.734458   15.530556   24.593422 H          1 MOL1         0.3769
     113    C33     22.716079   15.989596   23.033366 C.3        1 MOL1         0.1053
     114    H54     21.875106   16.657544   22.824040 H          1 MOL1         0.0783
     115    O28     23.543750   16.576602   24.043890 O.3        1 MOL1        -0.5519
     116    H55     22.913922   17.085899   24.621825 H          1 MOL1         0.3769
     117    C34     23.512654   15.828763   21.715115 C.3        1 MOL1         0.1018
     118    H56     24.500372   15.405236   21.939951 H          1 MOL1         0.0783
     119    C35     22.767941   14.955483   20.663840 C.3        1 MOL1         0.1043
     120    H57     21.968490   15.579053   20.251159 H          1 MOL1         0.0783
     121    O29     22.171668   13.770558   21.259712 O.3        1 MOL1        -0.3740
     122    C36     23.660296   14.517666   19.478287 C.3        1 MOL1         0.0138
     123    H58     23.887135   15.401946   18.867494 H          1 MOL1         0.0794
     124    H59     23.090749   13.823274   18.846005 H          1 MOL1         0.0794
     125    O30     24.878153   13.905577   19.919408 O.3        1 MOL1        -0.5486
     126    H60     25.354662   13.581757   19.123995 H          1 MOL1         0.3769
     127    C1      20.377403   18.089440   24.462406 C.2        1 MOL1         0.6168
     128    O1      19.756634   17.062112   24.653978 O.co2      1 MOL1        -0.6703
     129    O2      21.478925   18.302661   24.932064 O.co2      1 MOL1        -0.6703
     130    C2      19.833513   19.061260   23.422354 C.3        1 MOL1        -0.1963
     131    H1      20.244985   20.056591   23.626483 H          1 MOL1         0.0750
     132    H2      18.747694   19.120340   23.562570 H          1 MOL1         0.0750
     133    C3      20.163407   18.625046   21.973412 C.3        1 MOL1        -0.1860
     134    H3      21.251232   18.623665   21.834198 H          1 MOL1         0.0752
     135    H4      19.817293   17.595435   21.827455 H          1 MOL1         0.0752
     136    C4      19.502071   19.546429   20.933458 C.3        1 MOL1        -0.1858
     137    H5      19.890419   20.561960   21.057857 H          1 MOL1         0.0752
     138    H6      18.428333   19.590224   21.138201 H          1 MOL1         0.0752
     139    C5      19.718098   19.068818   19.482347 C.3        1 MOL1        -0.1858
     140    H7      20.786830   18.932872   19.283779 H          1 MOL1         0.0752
     141    H8      19.245417   18.089989   19.345574 H          1 MOL1         0.0752
     142    C6      19.124752   20.065896   18.466848 C.3        1 MOL1        -0.1858
     143    H9      19.618912   21.037837   18.579391 H          1 MOL1         0.0752
     144    H10     18.059426   20.222906   18.681010 H          1 MOL1         0.0752
     145    C7      19.287607   19.574418   17.015630 C.3        1 MOL1        -0.1834
     146    H11     20.353662   19.439705   16.786628 H          1 MOL1         0.0752
     147    H12     18.808491   18.592787   16.899409 H          1 MOL1         0.0752
     148    C8      18.667070   20.569474   16.015252 C.3        1 MOL1        -0.2849
     149    H13     18.789126   20.209294   14.985650 H          1 MOL1         0.0764
     150    H14     17.593316   20.697757   16.204731 H          1 MOL1         0.0764
     151    H15     19.148774   21.553082   16.089925 H          1 MOL1         0.0764
@<TRIPOS>BOND
    1     1     2    1
    2     1     3    1
    3     1     4    1
    4     4     5    1
    5     4     6    1
    6     6     7    1
    7     4     8    1
    8     8     9    1
    9     8    10    1
   10    10    11    1
   11     8    12    1
   12    12    13    1
   13    12    14    1
   14    14    15    1
   15     1    16    1
   16    14    16    1
   17    14    17    1
   18    17    18    1
   19    17    19    1
   20    17    20    1
   21    20    21    1
   22    22    23    1
   23    22    24    1
   24    22    25    1
   25    25    26    1
   26    25    27    1
   27    27    28    1
   28    25    29    1
   29    29    30    1
   30    29    31    1
   31    31    32    1
   32     3    33    1
   33    29    33    1
   34    33    34    1
   35    33    35    1
   36    35    36    1
   37    22    37    1
   38    35    37    1
   39    35    38    1
   40    38    39    1
   41    38    40    1
   42    38    41    1
   43    41    42    1
   44    43    44    1
   45    43    45    1
   46    43    46    1
   47    46    47    1
   48    46    48    1
   49    48    49    1
   50    46    50    1
   51    50    51    1
   52    50    52    1
   53    52    53    1
   54    24    54    1
   55    50    54    1
   56    54    55    1
   57    54    56    1
   58    56    57    1
   59    43    58    1
   60    56    58    1
   61    56    59    1
   62    59    60    1
   63    59    61    1
   64    59    62    1
   65    62    63    1
   66    64    65    1
   67    64    66    1
   68    64    67    1
   69    67    68    1
   70    67    69    1
   71    69    70    1
   72    67    71    1
   73    71    72    1
   74    71    73    1
   75    73    74    1
   76    45    75    1
   77    71    75    1
   78    75    76    1
   79    75    77    1
   80    77    78    1
   81    64    79    1
   82    77    79    1
   83    77    80    1
   84    80    81    1
   85    80    82    1
   86    80    83    1
   87    83    84    1
   88    85    86    1
   89    85    87    1
   90    85    88    1
   91    88    89    1
   92    88    90    1
   93    90    91    1
   94    88    92    1
   95    92    93    1
   96    92    94    1
   97    94    95    1
   98    66    96    1
   99    92    96    1
  100    96    97    1
  101    96    98    1
  102    98    99    1
  103    85   100    1
  104    98   100    1
  105    98   101    1
  106   101   102    1
  107   101   103    1
  108   101   104    1
  109   104   105    1
  110   106   107    1
  111    12   108    1
  112   106   108    1
  113   106   109    1
  114   109   110    1
  115   109   111    1
  116   111   112    1
  117   109   113    1
  118   113   114    1
  119   113   115    1
  120   115   116    1
  121    87   117    1
  122   113   117    1
  123   117   118    1
  124   117   119    1
  125   119   120    1
  126   106   121    1
  127   119   121    1
  128   119   122    1
  129   122   123    1
  130   122   124    1
  131   122   125    1
  132   125   126    1
  133   127   128    1
  134   127   129    2
  135   127   130    1
  136   130   131    1
  137   130   132    1
  138   130   133    1
  139   133   134    1
  140   133   135    1
  141   133   136    1
  142   136   137    1
  143   136   138    1
  144   136   139    1
  145   139   140    1
  146   139   141    1
  147   139   142    1
  148   142   143    1
  149   142   144    1
  150   142   145    1
  151   145   146    1
  152   145   147    1
  153   145   148    1
  154   148   149    1
  155   148   150    1
  156   148   151    1
@<TRIPOS>SUBSTRUCTURE
       1 MOL1            1 RESIDUE      1      MOL     
       2 MOL1          151 RESIDUE      1      MOL     
@<SCITEGIC>MOL_PROPERTY
feprocess Rank
SciTegic.value.IntegerValue
4

@<SCITEGIC>MOL_PROPERTY
Conf_Id
SciTegic.value.IntegerValue
502

@<SCITEGIC>MOL_PROPERTY
Probability
SciTegic.value.DoubleValue
6.06

@<SCITEGIC>MOL_PROPERTY
G
SciTegic.value.DoubleValue
515.627

@<SCITEGIC>MOL_PROPERTY
E
SciTegic.value.DoubleValue
318.472

@<SCITEGIC>MOL_PROPERTY
-TS
SciTegic.value.DoubleValue
197.154

@<SCITEGIC>MOL_PROPERTY
U+W
SciTegic.value.DoubleValue
185.230

@<SCITEGIC>MOL_PROPERTY
U
SciTegic.value.DoubleValue
258.956

@<SCITEGIC>MOL_PROPERTY
W
SciTegic.value.DoubleValue
-73.726

@<SCITEGIC>MOL_PROPERTY
W(PB)
SciTegic.value.DoubleValue
-79.878

@<SCITEGIC>MOL_PROPERTY
W(SA)
SciTegic.value.DoubleValue
6.153

@<SCITEGIC>MOL_PROPERTY
Valence
SciTegic.value.DoubleValue
154.334

@<SCITEGIC>MOL_PROPERTY
Coulomb
SciTegic.value.DoubleValue
133.327

@<SCITEGIC>MOL_PROPERTY
VdW
SciTegic.value.DoubleValue
-28.705

@<SCITEGIC>MOL_PROPERTY
VdW6
SciTegic.value.DoubleValue
-190.135

@<SCITEGIC>MOL_PROPERTY
VdW12
SciTegic.value.DoubleValue
161.430

@<SCITEGIC>MOL_PROPERTY
Bond
SciTegic.value.DoubleValue
4.925

@<SCITEGIC>MOL_PROPERTY
Angle
SciTegic.value.DoubleValue
14.112

@<SCITEGIC>MOL_PROPERTY
Pdih
SciTegic.value.DoubleValue
135.240

@<SCITEGIC>MOL_PROPERTY
Idih
SciTegic.value.DoubleValue
0.057

@<SCITEGIC>MOL_PROPERTY
Tether
SciTegic.value.DoubleValue
0.000

@<TRIPOS>MOLECULE
CD_guest-8_fast_vm2_rndm.mol2 : feprocess host+ligand conformer 5
         151         156           2
SMALL
USER_CHARGES
 
@<TRIPOS>ATOM
       1    C1      16.331596   15.345011   20.425525 C.3        1 MOL1         0.2972
       2    H1      15.348236   15.215106   19.955510 H          1 MOL1         0.0751
       3    O1      16.482933   16.663680   20.986845 O.3        1 MOL1        -0.3740
       4    C2      16.559721   14.301692   21.547736 C.3        1 MOL1         0.1003
       5    H2      16.522489   13.311181   21.075890 H          1 MOL1         0.0783
       6    O2      15.534940   14.375185   22.551305 O.3        1 MOL1        -0.5519
       7    H3      15.523482   15.305482   22.892306 H          1 MOL1         0.3769
       8    C3      17.962877   14.466950   22.186634 C.3        1 MOL1         0.1053
       9    H4      17.977250   15.407240   22.755645 H          1 MOL1         0.0783
      10    O3      18.188811   13.357888   23.062717 O.3        1 MOL1        -0.5519
      11    H5      17.395222   13.317240   23.639600 H          1 MOL1         0.3769
      12    C4      19.084024   14.534249   21.111775 C.3        1 MOL1         0.1018
      13    H6      19.277333   13.516054   20.751133 H          1 MOL1         0.0783
      14    C5      18.718466   15.445046   19.905601 C.3        1 MOL1         0.1043
      15    H7      18.756792   16.488711   20.242442 H          1 MOL1         0.0783
      16    O4      17.376975   15.146558   19.449818 O.3        1 MOL1        -0.3740
      17    C6      19.687845   15.324877   18.699429 C.3        1 MOL1         0.0138
      18    H8      20.494239   16.056657   18.829673 H          1 MOL1         0.0794
      19    H9      19.148858   15.613940   17.787302 H          1 MOL1         0.0794
      20    O5      20.247872   14.014078   18.543459 O.3        1 MOL1        -0.5486
      21    H10     20.801820   13.834843   19.336488 H          1 MOL1         0.3769
      22    C7      14.629733   20.251493   21.716516 C.3        1 MOL1         0.2972
      23    H11     13.955459   21.099632   21.891592 H          1 MOL1         0.0751
      24    O6      16.006220   20.671172   21.641479 O.3        1 MOL1        -0.3740
      25    C8      14.510721   19.239566   22.878602 C.3        1 MOL1         0.1003
      26    H12     13.479178   18.864335   22.893061 H          1 MOL1         0.0783
      27    O7      14.804015   19.884220   24.128397 O.3        1 MOL1        -0.5519
      28    H13     15.451476   20.604015   23.930793 H          1 MOL1         0.3769
      29    C9      15.458228   18.039409   22.652194 C.3        1 MOL1         0.1053
      30    H14     16.486724   18.409203   22.731603 H          1 MOL1         0.0783
      31    O8      15.222757   17.053667   23.662259 O.3        1 MOL1        -0.5519
      32    H15     15.208019   17.556860   24.506911 H          1 MOL1         0.3769
      33    C10     15.281036   17.416141   21.243850 C.3        1 MOL1         0.1018
      34    H16     14.386097   16.779841   21.249121 H          1 MOL1         0.0783
      35    C11     15.179826   18.484144   20.116595 C.3        1 MOL1         0.1043
      36    H17     16.184701   18.893010   19.966484 H          1 MOL1         0.0783
      37    O9      14.290307   19.567460   20.492792 O.3        1 MOL1        -0.3740
      38    C12     14.714932   17.911180   18.756963 C.3        1 MOL1         0.0138
      39    H18     15.522083   17.288705   18.347226 H          1 MOL1         0.0794
      40    H19     14.560218   18.745017   18.059089 H          1 MOL1         0.0794
      41    O10     13.516673   17.135336   18.880638 O.3        1 MOL1        -0.5486
      42    H20     13.239033   16.869077   17.977119 H          1 MOL1         0.3769
      43    C13     18.430340   23.965670   20.884794 C.3        1 MOL1         0.2972
      44    H21     18.835515   24.946928   20.606486 H          1 MOL1         0.0751
      45    O11     19.485388   22.998417   21.077186 O.3        1 MOL1        -0.3740
      46    C14     17.553453   24.062096   22.164530 C.3        1 MOL1         0.1003
      47    H22     16.708425   24.719909   21.923027 H          1 MOL1         0.0783
      48    O12     18.267475   24.626880   23.273286 O.3        1 MOL1        -0.5519
      49    H23     19.004612   24.000990   23.487485 H          1 MOL1         0.3769
      50    C15     16.978039   22.671963   22.529998 C.3        1 MOL1         0.1053
      51    H24     17.813771   22.011387   22.798836 H          1 MOL1         0.0783
      52    O13     16.080555   22.794540   23.638971 O.3        1 MOL1        -0.5519
      53    H25     16.545604   23.372145   24.283955 H          1 MOL1         0.3769
      54    C16     16.232775   22.055138   21.320702 C.3        1 MOL1         0.1018
      55    H26     15.293707   22.606122   21.180636 H          1 MOL1         0.0783
      56    C17     17.068675   22.122251   20.010940 C.3        1 MOL1         0.1043
      57    H27     17.915217   21.432248   20.110461 H          1 MOL1         0.0783
      58    O14     17.572497   23.470731   19.831653 O.3        1 MOL1        -0.3740
      59    C18     16.297648   21.713723   18.727308 C.3        1 MOL1         0.0138
      60    H28     16.426950   20.636811   18.568823 H          1 MOL1         0.0794
      61    H29     16.761884   22.215372   17.867911 H          1 MOL1         0.0794
      62    O15     14.899364   22.020831   18.776603 O.3        1 MOL1        -0.5486
      63    H30     14.471619   21.314643   19.314202 H          1 MOL1         0.3769
      64    C19     23.550886   22.556218   21.835941 C.3        1 MOL1         0.2972
      65    H31     24.605388   22.706426   22.100450 H          1 MOL1         0.0751
      66    O16     23.339570   21.269705   21.220799 O.3        1 MOL1        -0.3740
      67    C20     22.656409   22.681830   23.097084 C.3        1 MOL1         0.1003
      68    H32     22.810029   23.692919   23.496180 H          1 MOL1         0.0783
      69    O17     23.008141   21.724286   24.108477 O.3        1 MOL1        -0.5519
      70    H33     23.895643   21.361529   23.873142 H          1 MOL1         0.3769
      71    C21     21.161060   22.534651   22.737586 C.3        1 MOL1         0.1053
      72    H34     20.991546   21.500588   22.410127 H          1 MOL1         0.0783
      73    O18     20.387760   22.812866   23.908567 O.3        1 MOL1        -0.5519
      74    H35     20.833323   22.299973   24.620164 H          1 MOL1         0.3769
      75    C22     20.749336   23.480205   21.581746 C.3        1 MOL1         0.1018
      76    H36     20.672475   24.503129   21.973190 H          1 MOL1         0.0783
      77    C23     21.764901   23.440972   20.404038 C.3        1 MOL1         0.1043
      78    H37     21.661860   22.474120   19.895556 H          1 MOL1         0.0783
      79    O19     23.122809   23.569621   20.900412 O.3        1 MOL1        -0.3740
      80    C24     21.521443   24.541961   19.344464 C.3        1 MOL1         0.0138
      81    H38     20.601898   24.297568   18.795427 H          1 MOL1         0.0794
      82    H39     22.348161   24.521076   18.621850 H          1 MOL1         0.0794
      83    O20     21.404801   25.844210   19.932016 O.3        1 MOL1        -0.5486
      84    H40     21.330904   26.495375   19.200632 H          1 MOL1         0.3769
      85    C25     25.132696   17.580101   20.816289 C.3        1 MOL1         0.2972
      86    H41     25.747811   16.697163   20.599991 H          1 MOL1         0.0751
      87    O21     23.777502   17.217033   21.157162 O.3        1 MOL1        -0.3740
      88    C26     25.745418   18.435826   21.954589 C.3        1 MOL1         0.1003
      89    H42     26.702329   18.824104   21.581798 H          1 MOL1         0.0783
      90    O22     25.997317   17.663578   23.137008 O.3        1 MOL1        -0.5519
      91    H43     25.124766   17.308687   23.443465 H          1 MOL1         0.3769
      92    C27     24.834851   19.649743   22.267825 C.3        1 MOL1         0.1053
      93    H44     23.889880   19.272168   22.683555 H          1 MOL1         0.0783
      94    O23     25.494276   20.480188   23.230075 O.3        1 MOL1        -0.5519
      95    H45     25.908566   19.851720   23.864594 H          1 MOL1         0.3769
      96    C28     24.511265   20.461749   20.980685 C.3        1 MOL1         0.1018
      97    H46     25.378540   21.082551   20.723387 H          1 MOL1         0.0783
      98    C29     24.158267   19.557786   19.765068 C.3        1 MOL1         0.1043
      99    H47     23.150969   19.160629   19.925972 H          1 MOL1         0.0783
     100    O24     25.077999   18.442527   19.660833 O.3        1 MOL1        -0.3740
     101    C30     24.130606   20.315672   18.414850 C.3        1 MOL1         0.0138
     102    H48     23.261107   20.986842   18.408245 H          1 MOL1         0.0794
     103    H49     23.980723   19.584186   17.609786 H          1 MOL1         0.0794
     104    O25     25.325804   21.069915   18.177412 O.3        1 MOL1        -0.5486
     105    H50     25.289258   21.868596   18.745896 H          1 MOL1         0.3769
     106    C31     21.219628   14.184964   22.253141 C.3        1 MOL1         0.2972
     107    H51     20.733570   13.260660   22.590130 H          1 MOL1         0.0751
     108    O26     20.256845   15.114760   21.716340 O.3        1 MOL1        -0.3740
     109    C32     21.962898   14.846620   23.441029 C.3        1 MOL1         0.1003
     110    H52     22.742812   14.147259   23.768462 H          1 MOL1         0.0783
     111    O27     21.050429   15.065246   24.528927 O.3        1 MOL1        -0.5519
     112    H53     21.293194   15.914355   24.977016 H          1 MOL1         0.3769
     113    C33     22.664140   16.153509   22.992010 C.3        1 MOL1         0.1053
     114    H54     21.892454   16.886050   22.724716 H          1 MOL1         0.0783
     115    O28     23.479434   16.666130   24.053502 O.3        1 MOL1        -0.5519
     116    H55     22.860520   17.044483   24.731570 H          1 MOL1         0.3769
     117    C34     23.552178   15.919389   21.742558 C.3        1 MOL1         0.1018
     118    H56     24.488083   15.437549   22.055175 H          1 MOL1         0.0783
     119    C35     22.848565   15.068115   20.648553 C.3        1 MOL1         0.1043
     120    H57     22.094312   15.709476   20.180638 H          1 MOL1         0.0783
     121    O29     22.189745   13.907310   21.219322 O.3        1 MOL1        -0.3740
     122    C36     23.803164   14.594316   19.526731 C.3        1 MOL1         0.0138
     123    H58     24.101661   15.468393   18.932076 H          1 MOL1         0.0794
     124    H59     23.253258   13.918273   18.858333 H          1 MOL1         0.0794
     125    O30     24.967141   13.941756   20.048859 O.3        1 MOL1        -0.5486
     126    H60     25.486589   13.603882   19.286958 H          1 MOL1         0.3769
     127    C1      20.587481   18.474348   25.504859 C.2        1 MOL1         0.6168
     128    O1      21.428809   17.607227   25.651555 O.co2      1 MOL1        -0.6703
     129    O2      19.837979   18.846489   26.385950 O.co2      1 MOL1        -0.6703
     130    C2      20.455803   19.113431   24.126965 C.3        1 MOL1        -0.1963
     131    H1      21.448162   19.124213   23.664026 H          1 MOL1         0.0750
     132    H2      20.155640   20.154705   24.276655 H          1 MOL1         0.0750
     133    C3      19.420563   18.398262   23.220555 C.3        1 MOL1        -0.1860
     134    H3      19.699025   17.345883   23.087153 H          1 MOL1         0.0752
     135    H4      18.459102   18.391105   23.749240 H          1 MOL1         0.0752
     136    C4      19.231545   19.075252   21.840902 C.3        1 MOL1        -0.1858
     137    H5      19.001177   20.138121   21.986212 H          1 MOL1         0.0752
     138    H6      18.353908   18.631300   21.358624 H          1 MOL1         0.0752
     139    C5      20.454148   18.927435   20.902491 C.3        1 MOL1        -0.1858
     140    H7      21.346533   19.311445   21.410220 H          1 MOL1         0.0752
     141    H8      20.647406   17.865561   20.705075 H          1 MOL1         0.0752
     142    C6      20.295039   19.692805   19.565781 C.3        1 MOL1        -0.1858
     143    H9      21.237601   19.644501   19.010462 H          1 MOL1         0.0752
     144    H10     20.118085   20.753365   19.778128 H          1 MOL1         0.0752
     145    C7      19.172340   19.154993   18.654877 C.3        1 MOL1        -0.1834
     146    H11     19.344552   18.095457   18.438483 H          1 MOL1         0.0752
     147    H12     18.208177   19.222763   19.166906 H          1 MOL1         0.0752
     148    C8      19.103796   19.937161   17.328441 C.3        1 MOL1        -0.2849
     149    H13     20.033559   19.818491   16.757175 H          1 MOL1         0.0764
     150    H14     18.275534   19.574354   16.706485 H          1 MOL1         0.0764
     151    H15     18.952198   21.008732   17.510290 H          1 MOL1         0.0764
@<TRIPOS>BOND
    1     1     2    1
    2     1     3    1
    3     1     4    1
    4     4     5    1
    5     4     6    1
    6     6     7    1
    7     4     8    1
    8     8     9    1
    9     8    10    1
   10    10    11    1
   11     8    12    1
   12    12    13    1
   13    12    14    1
   14    14    15    1
   15     1    16    1
   16    14    16    1
   17    14    17    1
   18    17    18    1
   19    17    19    1
   20    17    20    1
   21    20    21    1
   22    22    23    1
   23    22    24    1
   24    22    25    1
   25    25    26    1
   26    25    27    1
   27    27    28    1
   28    25    29    1
   29    29    30    1
   30    29    31    1
   31    31    32    1
   32     3    33    1
   33    29    33    1
   34    33    34    1
   35    33    35    1
   36    35    36    1
   37    22    37    1
   38    35    37    1
   39    35    38    1
   40    38    39    1
   41    38    40    1
   42    38    41    1
   43    41    42    1
   44    43    44    1
   45    43    45    1
   46    43    46    1
   47    46    47    1
   48    46    48    1
   49    48    49    1
   50    46    50    1
   51    50    51    1
   52    50    52    1
   53    52    53    1
   54    24    54    1
   55    50    54    1
   56    54    55    1
   57    54    56    1
   58    56    57    1
   59    43    58    1
   60    56    58    1
   61    56    59    1
   62    59    60    1
   63    59    61    1
   64    59    62    1
   65    62    63    1
   66    64    65    1
   67    64    66    1
   68    64    67    1
   69    67    68    1
   70    67    69    1
   71    69    70    1
   72    67    71    1
   73    71    72    1
   74    71    73    1
   75    73    74    1
   76    45    75    1
   77    71    75    1
   78    75    76    1
   79    75    77    1
   80    77    78    1
   81    64    79    1
   82    77    79    1
   83    77    80    1
   84    80    81    1
   85    80    82    1
   86    80    83    1
   87    83    84    1
   88    85    86    1
   89    85    87    1
   90    85    88    1
   91    88    89    1
   92    88    90    1
   93    90    91    1
   94    88    92    1
   95    92    93    1
   96    92    94    1
   97    94    95    1
   98    66    96    1
   99    92    96    1
  100    96    97    1
  101    96    98    1
  102    98    99    1
  103    85   100    1
  104    98   100    1
  105    98   101    1
  106   101   102    1
  107   101   103    1
  108   101   104    1
  109   104   105    1
  110   106   107    1
  111    12   108    1
  112   106   108    1
  113   106   109    1
  114   109   110    1
  115   109   111    1
  116   111   112    1
  117   109   113    1
  118   113   114    1
  119   113   115    1
  120   115   116    1
  121    87   117    1
  122   113   117    1
  123   117   118    1
  124   117   119    1
  125   119   120    1
  126   106   121    1
  127   119   121    1
  128   119   122    1
  129   122   123    1
  130   122   124    1
  131   122   125    1
  132   125   126    1
  133   127   128    1
  134   127   129    2
  135   127   130    1
  136   130   131    1
  137   130   132    1
  138   130   133    1
  139   133   134    1
  140   133   135    1
  141   133   136    1
  142   136   137    1
  143   136   138    1
  144   136   139    1
  145   139   140    1
  146   139   141    1
  147   139   142    1
  148   142   143    1
  149   142   144    1
  150   142   145    1
  151   145   146    1
  152   145   147    1
  153   145   148    1
  154   148   149    1
  155   148   150    1
  156   148   151    1
@<TRIPOS>SUBSTRUCTURE
       1 MOL1            1 RESIDUE      1      MOL     
       2 MOL1          151 RESIDUE      1      MOL     
@<SCITEGIC>MOL_PROPERTY
feprocess Rank
SciTegic.value.IntegerValue
5

@<SCITEGIC>MOL_PROPERTY
Conf_Id
SciTegic.value.IntegerValue
253

@<SCITEGIC>MOL_PROPERTY
Probability
SciTegic.value.DoubleValue
3.77

@<SCITEGIC>MOL_PROPERTY
G
SciTegic.value.DoubleValue
515.909

@<SCITEGIC>MOL_PROPERTY
E
SciTegic.value.DoubleValue
316.281

@<SCITEGIC>MOL_PROPERTY
-TS
SciTegic.value.DoubleValue
199.628

@<SCITEGIC>MOL_PROPERTY
U+W
SciTegic.value.DoubleValue
183.039

@<SCITEGIC>MOL_PROPERTY
U
SciTegic.value.DoubleValue
261.693

@<SCITEGIC>MOL_PROPERTY
W
SciTegic.value.DoubleValue
-78.654

@<SCITEGIC>MOL_PROPERTY
W(PB)
SciTegic.value.DoubleValue
-84.749

@<SCITEGIC>MOL_PROPERTY
W(SA)
SciTegic.value.DoubleValue
6.095

@<SCITEGIC>MOL_PROPERTY
Valence
SciTegic.value.DoubleValue
153.284

@<SCITEGIC>MOL_PROPERTY
Coulomb
SciTegic.value.DoubleValue
136.543

@<SCITEGIC>MOL_PROPERTY
VdW
SciTegic.value.DoubleValue
-28.134

@<SCITEGIC>MOL_PROPERTY
VdW6
SciTegic.value.DoubleValue
-194.710

@<SCITEGIC>MOL_PROPERTY
VdW12
SciTegic.value.DoubleValue
166.576

@<SCITEGIC>MOL_PROPERTY
Bond
SciTegic.value.DoubleValue
5.054

@<SCITEGIC>MOL_PROPERTY
Angle
SciTegic.value.DoubleValue
15.050

@<SCITEGIC>MOL_PROPERTY
Pdih
SciTegic.value.DoubleValue
133.179

@<SCITEGIC>MOL_PROPERTY
Idih
SciTegic.value.DoubleValue
0.001

@<SCITEGIC>MOL_PROPERTY
Tether
SciTegic.value.DoubleValue
0.000

@<TRIPOS>MOLECULE
CD_guest-8_fast_vm2_rndm.mol2 : feprocess host+ligand conformer 6
         151         156           2
SMALL
USER_CHARGES
 
@<TRIPOS>ATOM
       1    C1      16.333370   15.263756   20.269033 C.3        1 MOL1         0.2972
       2    H1      15.346931   15.105348   19.814838 H          1 MOL1         0.0751
       3    O1      16.482304   16.610101   20.770356 O.3        1 MOL1        -0.3740
       4    C2      16.559822   14.280189   21.441778 C.3        1 MOL1         0.1003
       5    H2      16.518832   13.266693   21.021785 H          1 MOL1         0.0783
       6    O2      15.532211   14.408964   22.437126 O.3        1 MOL1        -0.5519
       7    H3      15.399554   15.376519   22.605054 H          1 MOL1         0.3769
       8    C3      17.963777   14.467925   22.072276 C.3        1 MOL1         0.1053
       9    H4      17.986513   15.437109   22.590218 H          1 MOL1         0.0783
      10    O3      18.165142   13.404206   23.008696 O.3        1 MOL1        -0.5519
      11    H5      17.367181   13.412987   23.581320 H          1 MOL1         0.3769
      12    C4      19.090577   14.464718   20.996962 C.3        1 MOL1         0.1018
      13    H6      19.305558   13.427127   20.713651 H          1 MOL1         0.0783
      14    C5      18.719498   15.284146   19.727403 C.3        1 MOL1         0.1043
      15    H7      18.782177   16.347031   19.984125 H          1 MOL1         0.0783
      16    O4      17.367679   14.998305   19.299243 O.3        1 MOL1        -0.3740
      17    C6      19.677764   15.047577   18.531583 C.3        1 MOL1         0.0138
      18    H8      20.609894   15.597281   18.715259 H          1 MOL1         0.0794
      19    H9      19.223328   15.479649   17.630479 H          1 MOL1         0.0794
      20    O5      19.969096   13.661797   18.311375 O.3        1 MOL1        -0.5486
      21    H10     20.546614   13.362116   19.045683 H          1 MOL1         0.3769
      22    C7      14.678000   20.322431   21.002371 C.3        1 MOL1         0.2972
      23    H11     14.030409   21.207806   20.963953 H          1 MOL1         0.0751
      24    O6      16.050577   20.681114   21.274325 O.3        1 MOL1        -0.3740
      25    C8      14.186495   19.310317   22.069244 C.3        1 MOL1         0.1003
      26    H12     13.198799   18.956477   21.745904 H          1 MOL1         0.0783
      27    O7      14.055137   19.914665   23.364174 O.3        1 MOL1        -0.5519
      28    H13     14.952574   20.243435   23.624401 H          1 MOL1         0.3769
      29    C9      15.133208   18.085912   22.120611 C.3        1 MOL1         0.1053
      30    H14     16.114099   18.425442   22.474760 H          1 MOL1         0.0783
      31    O8      14.601478   17.117415   23.029545 O.3        1 MOL1        -0.5519
      32    H15     14.324953   17.633669   23.819448 H          1 MOL1         0.3769
      33    C10     15.310477   17.452882   20.715133 C.3        1 MOL1         0.1018
      34    H16     14.403200   16.878428   20.486835 H          1 MOL1         0.0783
      35    C11     15.551988   18.510845   19.598209 C.3        1 MOL1         0.1043
      36    H17     16.573858   18.889478   19.696948 H          1 MOL1         0.0783
      37    O9      14.637169   19.627955   19.736810 O.3        1 MOL1        -0.3740
      38    C12     15.421641   17.933418   18.168829 C.3        1 MOL1         0.0138
      39    H18     16.270891   17.260279   17.988103 H          1 MOL1         0.0794
      40    H19     15.501092   18.758834   17.448822 H          1 MOL1         0.0794
      41    O10     14.190169   17.223802   17.982091 O.3        1 MOL1        -0.5486
      42    H20     14.156000   16.929154   17.046067 H          1 MOL1         0.3769
      43    C13     18.613082   23.657214   22.530853 C.3        1 MOL1         0.2972
      44    H21     19.110505   24.552563   22.924082 H          1 MOL1         0.0751
      45    O11     19.544110   22.788470   21.852761 O.3        1 MOL1        -0.3740
      46    C14     17.949643   22.867135   23.686757 C.3        1 MOL1         0.1003
      47    H22     17.158632   23.500729   24.107968 H          1 MOL1         0.0783
      48    O12     18.912844   22.583629   24.715324 O.3        1 MOL1        -0.5519
      49    H23     18.890448   21.611609   24.903481 H          1 MOL1         0.3769
      50    C15     17.285005   21.582924   23.131542 C.3        1 MOL1         0.1053
      51    H24     18.068573   20.965013   22.690082 H          1 MOL1         0.0783
      52    O13     16.635325   20.855177   24.181745 O.3        1 MOL1        -0.5519
      53    H25     17.357119   20.402364   24.692512 H          1 MOL1         0.3769
      54    C16     16.286945   21.912715   21.991796 C.3        1 MOL1         0.1018
      55    H26     15.367266   22.322392   22.430001 H          1 MOL1         0.0783
      56    C17     16.884095   22.906436   20.952323 C.3        1 MOL1         0.1043
      57    H27     17.609671   22.346528   20.352081 H          1 MOL1         0.0783
      58    O14     17.570017   24.014012   21.596041 O.3        1 MOL1        -0.3740
      59    C18     15.831388   23.479061   19.973894 C.3        1 MOL1         0.0138
      60    H28     15.501082   22.671432   19.306504 H          1 MOL1         0.0794
      61    H29     16.311672   24.243157   19.348024 H          1 MOL1         0.0794
      62    O15     14.702857   24.033632   20.661129 O.3        1 MOL1        -0.5486
      63    H30     14.115003   24.441385   19.988295 H          1 MOL1         0.3769
      64    C19     23.448152   22.632208   20.470593 C.3        1 MOL1         0.2972
      65    H31     24.413398   22.807014   19.978074 H          1 MOL1         0.0751
      66    O16     23.350550   21.289653   20.989684 O.3        1 MOL1        -0.3740
      67    C20     23.239051   23.620941   21.645011 C.3        1 MOL1         0.1003
      68    H32     23.270557   24.633259   21.221520 H          1 MOL1         0.0783
      69    O17     24.283691   23.492945   22.623291 O.3        1 MOL1        -0.5519
      70    H33     24.370268   22.530232   22.841736 H          1 MOL1         0.3769
      71    C21     21.848456   23.430562   22.306043 C.3        1 MOL1         0.1053
      72    H34     21.848414   22.469176   22.838395 H          1 MOL1         0.0783
      73    O18     21.642083   24.503259   23.230378 O.3        1 MOL1        -0.5519
      74    H35     22.452404   24.526004   23.784953 H          1 MOL1         0.3769
      75    C22     20.703201   23.400122   21.254443 C.3        1 MOL1         0.1018
      76    H36     20.495415   24.425765   20.924145 H          1 MOL1         0.0783
      77    C23     21.051131   22.517076   20.025042 C.3        1 MOL1         0.1043
      78    H37     21.048635   21.471936   20.355813 H          1 MOL1         0.0783
      79    O19     22.370893   22.846896   19.534388 O.3        1 MOL1        -0.3740
      80    C24     20.040255   22.622846   18.852575 C.3        1 MOL1         0.0138
      81    H38     19.245306   21.884435   19.014219 H          1 MOL1         0.0794
      82    H39     20.548930   22.334723   17.922952 H          1 MOL1         0.0794
      83    O20     19.466630   23.929642   18.714728 O.3        1 MOL1        -0.5486
      84    H40     18.952223   24.111817   19.532001 H          1 MOL1         0.3769
      85    C25     25.222272   17.641334   21.204967 C.3        1 MOL1         0.2972
      86    H41     25.876015   16.759772   21.196240 H          1 MOL1         0.0751
      87    O21     23.827443   17.263374   21.279417 O.3        1 MOL1        -0.3740
      88    C26     25.587162   18.603522   22.366080 C.3        1 MOL1         0.1003
      89    H42     26.588594   18.998653   22.150552 H          1 MOL1         0.0783
      90    O22     25.628675   17.938036   23.635973 O.3        1 MOL1        -0.5519
      91    H43     24.707661   17.630783   23.828510 H          1 MOL1         0.3769
      92    C27     24.605228   19.799990   22.386435 C.3        1 MOL1         0.1053
      93    H44     23.599858   19.418152   22.606461 H          1 MOL1         0.0783
      94    O23     25.001582   20.729446   23.400407 O.3        1 MOL1        -0.5519
      95    H45     25.205069   20.177754   24.188283 H          1 MOL1         0.3769
      96    C28     24.565462   20.512774   21.010002 C.3        1 MOL1         0.1018
      97    H46     25.457666   21.147968   20.931719 H          1 MOL1         0.0783
      98    C29     24.508297   19.526304   19.803908 C.3        1 MOL1         0.1043
      99    H47     23.489261   19.135743   19.732616 H          1 MOL1         0.0783
     100    O24     25.411889   18.406487   19.994889 O.3        1 MOL1        -0.3740
     101    C30     24.824523   20.193454   18.444425 C.3        1 MOL1         0.0138
     102    H48     23.987353   20.853035   18.178141 H          1 MOL1         0.0794
     103    H49     24.879299   19.411201   17.675549 H          1 MOL1         0.0794
     104    O25     26.044573   20.944833   18.480370 O.3        1 MOL1        -0.5486
     105    H50     26.215873   21.277697   17.572473 H          1 MOL1         0.3769
     106    C31     21.121334   14.334731   22.396378 C.3        1 MOL1         0.2972
     107    H51     20.606519   13.450816   22.790688 H          1 MOL1         0.0751
     108    O26     20.263177   15.112470   21.534417 O.3        1 MOL1        -0.3740
     109    C32     21.600477   15.233064   23.565594 C.3        1 MOL1         0.1003
     110    H52     22.299517   14.640556   24.169554 H          1 MOL1         0.0783
     111    O27     20.481325   15.614766   24.384847 O.3        1 MOL1        -0.5519
     112    H53     20.657518   16.506942   24.775325 H          1 MOL1         0.3769
     113    C33     22.369126   16.467493   23.030578 C.3        1 MOL1         0.1053
     114    H54     21.657554   17.095642   22.487280 H          1 MOL1         0.0783
     115    O28     22.939575   17.193773   24.127359 O.3        1 MOL1        -0.5519
     116    H55     22.191532   17.630313   24.612334 H          1 MOL1         0.3769
     117    C34     23.487030   16.073365   22.027933 C.3        1 MOL1         0.1018
     118    H56     24.344922   15.680201   22.589097 H          1 MOL1         0.0783
     119    C35     23.007670   15.021777   20.987180 C.3        1 MOL1         0.1043
     120    H57     22.335228   15.528168   20.283445 H          1 MOL1         0.0783
     121    O29     22.285579   13.943607   21.635947 O.3        1 MOL1        -0.3740
     122    C36     24.161486   14.412781   20.155226 C.3        1 MOL1         0.0138
     123    H58     24.547333   15.187283   19.478498 H          1 MOL1         0.0794
     124    H59     23.755188   13.606223   19.530383 H          1 MOL1         0.0794
     125    O30     25.223130   13.917629   20.981153 O.3        1 MOL1        -0.5486
     126    H60     25.880292   13.484550   20.393747 H          1 MOL1         0.3769
     127    C1      19.985055   19.181831   24.684012 C.2        1 MOL1         0.6168
     128    O1      20.642419   18.322032   25.242099 O.co2      1 MOL1        -0.6703
     129    O2      19.074476   19.806910   25.198652 O.co2      1 MOL1        -0.6703
     130    C2      20.266337   19.437154   23.210792 C.3        1 MOL1        -0.1963
     131    H1      21.312706   19.197225   23.008076 H          1 MOL1         0.0750
     132    H2      20.165467   20.510928   23.030971 H          1 MOL1         0.0750
     133    C3      19.312845   18.628209   22.292898 C.3        1 MOL1        -0.1860
     134    H3      19.490638   17.552745   22.413297 H          1 MOL1         0.0752
     135    H4      18.282395   18.787724   22.628616 H          1 MOL1         0.0752
     136    C4      19.412417   19.021994   20.804962 C.3        1 MOL1        -0.1858
     137    H5      19.284210   20.105422   20.698568 H          1 MOL1         0.0752
     138    H6      18.572531   18.555047   20.285235 H          1 MOL1         0.0752
     139    C5      20.728694   18.556576   20.142791 C.3        1 MOL1        -0.1858
     140    H7      21.575810   18.945510   20.718325 H          1 MOL1         0.0752
     141    H8      20.793811   17.465201   20.213118 H          1 MOL1         0.0752
     142    C6      20.897441   18.976524   18.660031 C.3        1 MOL1        -0.1858
     143    H9      21.711330   18.381535   18.224550 H          1 MOL1         0.0752
     144    H10     21.231307   20.018667   18.611719 H          1 MOL1         0.0752
     145    C7      19.628530   18.815992   17.791451 C.3        1 MOL1        -0.1834
     146    H11     19.228698   17.800754   17.894574 H          1 MOL1         0.0752
     147    H12     18.845989   19.503839   18.137887 H          1 MOL1         0.0752
     148    C8      19.920655   19.104387   16.306130 C.3        1 MOL1        -0.2849
     149    H13     20.672526   18.408660   15.911654 H          1 MOL1         0.0764
     150    H14     19.009075   18.995080   15.704733 H          1 MOL1         0.0764
     151    H15     20.295460   20.127350   16.171747 H          1 MOL1         0.0764
@<TRIPOS>BOND
    1     1     2    1
    2     1     3    1
    3     1     4    1
    4     4     5    1
    5     4     6    1
    6     6     7    1
    7     4     8    1
    8     8     9    1
    9     8    10    1
   10    10    11    1
   11     8    12    1
   12    12    13    1
   13    12    14    1
   14    14    15    1
   15     1    16    1
   16    14    16    1
   17    14    17    1
   18    17    18    1
   19    17    19    1
   20    17    20    1
   21    20    21    1
   22    22    23    1
   23    22    24    1
   24    22    25    1
   25    25    26    1
   26    25    27    1
   27    27    28    1
   28    25    29    1
   29    29    30    1
   30    29    31    1
   31    31    32    1
   32     3    33    1
   33    29    33    1
   34    33    34    1
   35    33    35    1
   36    35    36    1
   37    22    37    1
   38    35    37    1
   39    35    38    1
   40    38    39    1
   41    38    40    1
   42    38    41    1
   43    41    42    1
   44    43    44    1
   45    43    45    1
   46    43    46    1
   47    46    47    1
   48    46    48    1
   49    48    49    1
   50    46    50    1
   51    50    51    1
   52    50    52    1
   53    52    53    1
   54    24    54    1
   55    50    54    1
   56    54    55    1
   57    54    56    1
   58    56    57    1
   59    43    58    1
   60    56    58    1
   61    56    59    1
   62    59    60    1
   63    59    61    1
   64    59    62    1
   65    62    63    1
   66    64    65    1
   67    64    66    1
   68    64    67    1
   69    67    68    1
   70    67    69    1
   71    69    70    1
   72    67    71    1
   73    71    72    1
   74    71    73    1
   75    73    74    1
   76    45    75    1
   77    71    75    1
   78    75    76    1
   79    75    77    1
   80    77    78    1
   81    64    79    1
   82    77    79    1
   83    77    80    1
   84    80    81    1
   85    80    82    1
   86    80    83    1
   87    83    84    1
   88    85    86    1
   89    85    87    1
   90    85    88    1
   91    88    89    1
   92    88    90    1
   93    90    91    1
   94    88    92    1
   95    92    93    1
   96    92    94    1
   97    94    95    1
   98    66    96    1
   99    92    96    1
  100    96    97    1
  101    96    98    1
  102    98    99    1
  103    85   100    1
  104    98   100    1
  105    98   101    1
  106   101   102    1
  107   101   103    1
  108   101   104    1
  109   104   105    1
  110   106   107    1
  111    12   108    1
  112   106   108    1
  113   106   109    1
  114   109   110    1
  115   109   111    1
  116   111   112    1
  117   109   113    1
  118   113   114    1
  119   113   115    1
  120   115   116    1
  121    87   117    1
  122   113   117    1
  123   117   118    1
  124   117   119    1
  125   119   120    1
  126   106   121    1
  127   119   121    1
  128   119   122    1
  129   122   123    1
  130   122   124    1
  131   122   125    1
  132   125   126    1
  133   127   128    1
  134   127   129    2
  135   127   130    1
  136   130   131    1
  137   130   132    1
  138   130   133    1
  139   133   134    1
  140   133   135    1
  141   133   136    1
  142   136   137    1
  143   136   138    1
  144   136   139    1
  145   139   140    1
  146   139   141    1
  147   139   142    1
  148   142   143    1
  149   142   144    1
  150   142   145    1
  151   145   146    1
  152   145   147    1
  153   145   148    1
  154   148   149    1
  155   148   150    1
  156   148   151    1
@<TRIPOS>SUBSTRUCTURE
       1 MOL1            1 RESIDUE      1      MOL     
       2 MOL1          151 RESIDUE      1      MOL     
@<SCITEGIC>MOL_PROPERTY
feprocess Rank
SciTegic.value.IntegerValue
6

@<SCITEGIC>MOL_PROPERTY
Conf_Id
SciTegic.value.IntegerValue
753

@<SCITEGIC>MOL_PROPERTY
Probability
SciTegic.value.DoubleValue
2.48

@<SCITEGIC>MOL_PROPERTY
G
SciTegic.value.DoubleValue
516.160

@<SCITEGIC>MOL_PROPERTY
E
SciTegic.value.DoubleValue
314.799

@<SCITEGIC>MOL_PROPERTY
-TS
SciTegic.value.DoubleValue
201.361

@<SCITEGIC>MOL_PROPERTY
U+W
SciTegic.value.DoubleValue
181.557

@<SCITEGIC>MOL_PROPERTY
U
SciTegic.value.DoubleValue
252.063

@<SCITEGIC>MOL_PROPERTY
W
SciTegic.value.DoubleValue
-70.506

@<SCITEGIC>MOL_PROPERTY
W(PB)
SciTegic.value.DoubleValue
-76.610

@<SCITEGIC>MOL_PROPERTY
W(SA)
SciTegic.value.DoubleValue
6.104

@<SCITEGIC>MOL_PROPERTY
Valence
SciTegic.value.DoubleValue
153.355

@<SCITEGIC>MOL_PROPERTY
Coulomb
SciTegic.value.DoubleValue
124.868

@<SCITEGIC>MOL_PROPERTY
VdW
SciTegic.value.DoubleValue
-26.160

@<SCITEGIC>MOL_PROPERTY
VdW6
SciTegic.value.DoubleValue
-197.844

@<SCITEGIC>MOL_PROPERTY
VdW12
SciTegic.value.DoubleValue
171.684

@<SCITEGIC>MOL_PROPERTY
Bond
SciTegic.value.DoubleValue
5.511

@<SCITEGIC>MOL_PROPERTY
Angle
SciTegic.value.DoubleValue
15.869

@<SCITEGIC>MOL_PROPERTY
Pdih
SciTegic.value.DoubleValue
131.965

@<SCITEGIC>MOL_PROPERTY
Idih
SciTegic.value.DoubleValue
0.010

@<SCITEGIC>MOL_PROPERTY
Tether
SciTegic.value.DoubleValue
0.000

@<TRIPOS>MOLECULE
CD_guest-8_fast_vm2_rndm.mol2 : feprocess host+ligand conformer 7
         151         156           2
SMALL
USER_CHARGES
 
@<TRIPOS>ATOM
       1    C1      16.286262   15.293426   21.630583 C.3        1 MOL1         0.2972
       2    H1      15.221555   15.134874   21.845124 H          1 MOL1         0.0751
       3    O1      16.540282   16.634883   21.168751 O.3        1 MOL1        -0.3740
       4    C2      17.134882   15.022562   22.899489 C.3        1 MOL1         0.1003
       5    H2      16.971126   13.973729   23.179286 H          1 MOL1         0.0783
       6    O2      16.741182   15.864176   23.994890 O.3        1 MOL1        -0.5519
       7    H3      15.978813   16.411540   23.685706 H          1 MOL1         0.3769
       8    C3      18.640359   15.206856   22.604479 C.3        1 MOL1         0.1053
       9    H4      18.809746   16.267396   22.382710 H          1 MOL1         0.0783
      10    O3      19.383820   14.832470   23.767576 O.3        1 MOL1        -0.5519
      11    H5      18.922205   15.287773   24.508019 H          1 MOL1         0.3769
      12    C4      19.084098   14.371357   21.374680 C.3        1 MOL1         0.1018
      13    H6      19.136135   13.313310   21.663483 H          1 MOL1         0.0783
      14    C5      18.112356   14.546685   20.173081 C.3        1 MOL1         0.1043
      15    H7      18.246128   15.561764   19.776443 H          1 MOL1         0.0783
      16    O4      16.735630   14.382768   20.604218 O.3        1 MOL1        -0.3740
      17    C6      18.385643   13.562754   19.010757 C.3        1 MOL1         0.0138
      18    H8      19.326276   13.854040   18.523717 H          1 MOL1         0.0794
      19    H9      17.585747   13.669905   18.265936 H          1 MOL1         0.0794
      20    O5      18.471382   12.204270   19.459889 O.3        1 MOL1        -0.5486
      21    H10     18.568456   11.633808   18.666481 H          1 MOL1         0.3769
      22    C7      14.720720   20.320993   20.743008 C.3        1 MOL1         0.2972
      23    H11     14.078347   21.181608   20.516029 H          1 MOL1         0.0751
      24    O6      16.047144   20.729228   21.134275 O.3        1 MOL1        -0.3740
      25    C8      14.118595   19.453544   21.876852 C.3        1 MOL1         0.1003
      26    H12     13.165137   19.054223   21.507143 H          1 MOL1         0.0783
      27    O7      13.868627   20.225545   23.060879 O.3        1 MOL1        -0.5519
      28    H13     14.717021   20.676831   23.305165 H          1 MOL1         0.3769
      29    C9      15.046415   18.253309   22.189487 C.3        1 MOL1         0.1053
      30    H14     15.983379   18.643164   22.612097 H          1 MOL1         0.0783
      31    O8      14.399149   17.403631   23.142034 O.3        1 MOL1        -0.5519
      32    H15     13.996191   18.018874   23.796341 H          1 MOL1         0.3769
      33    C10     15.386336   17.455448   20.900707 C.3        1 MOL1         0.1018
      34    H16     14.517224   16.847979   20.618541 H          1 MOL1         0.0783
      35    C11     15.770598   18.370668   19.703546 C.3        1 MOL1         0.1043
      36    H17     16.771266   18.779596   19.886495 H          1 MOL1         0.0783
      37    O9      14.835237   19.470061   19.583366 O.3        1 MOL1        -0.3740
      38    C12     15.828747   17.617514   18.351506 C.3        1 MOL1         0.0138
      39    H18     16.684379   16.930331   18.370326 H          1 MOL1         0.0794
      40    H19     16.015980   18.348744   17.554058 H          1 MOL1         0.0794
      41    O10     14.630744   16.881621   18.073770 O.3        1 MOL1        -0.5486
      42    H20     14.642992   16.074941   18.631788 H          1 MOL1         0.3769
      43    C13     18.448372   24.001715   21.850250 C.3        1 MOL1         0.2972
      44    H21     18.889652   24.987621   22.046149 H          1 MOL1         0.0751
      45    O11     19.456468   23.012724   21.571101 O.3        1 MOL1        -0.3740
      46    C14     17.643218   23.525631   23.082685 C.3        1 MOL1         0.1003
      47    H22     16.813736   24.228754   23.231391 H          1 MOL1         0.0783
      48    O12     18.482574   23.538696   24.247876 O.3        1 MOL1        -0.5519
      49    H23     19.417077   23.563437   23.931487 H          1 MOL1         0.3769
      50    C15     17.036594   22.123145   22.818607 C.3        1 MOL1         0.1053
      51    H24     17.855551   21.403591   22.709905 H          1 MOL1         0.0783
      52    O13     16.199163   21.725102   23.909849 O.3        1 MOL1        -0.5519
      53    H25     16.820923   21.442409   24.635269 H          1 MOL1         0.3769
      54    C16     16.222880   22.111893   21.498988 C.3        1 MOL1         0.1018
      55    H26     15.264931   22.618998   21.674873 H          1 MOL1         0.0783
      56    C17     16.978693   22.784046   20.316221 C.3        1 MOL1         0.1043
      57    H27     17.785995   22.105251   20.013416 H          1 MOL1         0.0783
      58    O14     17.555394   24.053894   20.718671 O.3        1 MOL1        -0.3740
      59    C18     16.091051   23.020911   19.071193 C.3        1 MOL1         0.0138
      60    H28     15.860454   22.047305   18.617653 H          1 MOL1         0.0794
      61    H29     16.667051   23.595792   18.333632 H          1 MOL1         0.0794
      62    O15     14.874744   23.704874   19.398032 O.3        1 MOL1        -0.5486
      63    H30     14.397715   23.881786   18.558089 H          1 MOL1         0.3769
      64    C19     23.540190   22.637050   20.886411 C.3        1 MOL1         0.2972
      65    H31     24.584543   22.780650   20.580583 H          1 MOL1         0.0751
      66    O16     23.291173   21.282599   21.316140 O.3        1 MOL1        -0.3740
      67    C20     23.154362   23.596242   22.044403 C.3        1 MOL1         0.1003
      68    H32     23.258388   24.621343   21.665655 H          1 MOL1         0.0783
      69    O17     24.015572   23.432821   23.181032 O.3        1 MOL1        -0.5519
      70    H33     23.983391   22.477075   23.440808 H          1 MOL1         0.3769
      71    C21     21.673068   23.384744   22.444997 C.3        1 MOL1         0.1053
      72    H34     21.567868   22.370650   22.854755 H          1 MOL1         0.0783
      73    O18     21.298644   24.348394   23.434160 O.3        1 MOL1        -0.5519
      74    H35     22.058379   24.383254   24.057736 H          1 MOL1         0.3769
      75    C22     20.753602   23.507085   21.204078 C.3        1 MOL1         0.1018
      76    H36     20.717827   24.558933   20.891573 H          1 MOL1         0.0783
      77    C23     21.253611   22.639739   20.016301 C.3        1 MOL1         0.1043
      78    H37     21.146119   21.583231   20.287531 H          1 MOL1         0.0783
      79    O19     22.654559   22.922754   19.778526 O.3        1 MOL1        -0.3740
      80    C24     20.458519   22.841614   18.699519 C.3        1 MOL1         0.0138
      81    H38     19.618401   22.135960   18.692284 H          1 MOL1         0.0794
      82    H39     21.105508   22.572642   17.853958 H          1 MOL1         0.0794
      83    O20     19.958256   24.174931   18.536320 O.3        1 MOL1        -0.5486
      84    H40     19.233238   24.295190   19.191599 H          1 MOL1         0.3769
      85    C25     25.067901   17.633173   22.054773 C.3        1 MOL1         0.2972
      86    H41     25.738399   16.788420   22.259037 H          1 MOL1         0.0751
      87    O21     23.722458   17.194535   21.794824 O.3        1 MOL1        -0.3740
      88    C26     25.022635   18.576994   23.278484 C.3        1 MOL1         0.1003
      89    H42     26.035568   18.969556   23.436575 H          1 MOL1         0.0783
      90    O22     24.601676   17.856065   24.447584 O.3        1 MOL1        -0.5519
      91    H43     24.045951   17.103177   24.131272 H          1 MOL1         0.3769
      92    C27     24.079011   19.771400   23.007802 C.3        1 MOL1         0.1053
      93    H44     23.056045   19.381770   22.931870 H          1 MOL1         0.0783
      94    O23     24.161301   20.690297   24.101050 O.3        1 MOL1        -0.5519
      95    H45     24.093628   20.129209   24.905841 H          1 MOL1         0.3769
      96    C28     24.434247   20.483407   21.676110 C.3        1 MOL1         0.1018
      97    H46     25.332893   21.094773   21.832861 H          1 MOL1         0.0783
      98    C29     24.660619   19.484432   20.505095 C.3        1 MOL1         0.1043
      99    H47     23.679661   19.080941   20.224421 H          1 MOL1         0.0783
     100    O24     25.522595   18.389932   20.913752 O.3        1 MOL1        -0.3740
     101    C30     25.264273   20.138921   19.239783 C.3        1 MOL1         0.0138
     102    H48     24.501566   20.785181   18.784335 H          1 MOL1         0.0794
     103    H49     25.498233   19.349031   18.513403 H          1 MOL1         0.0794
     104    O25     26.437178   20.906496   19.537512 O.3        1 MOL1        -0.5486
     105    H50     26.806968   21.228029   18.686533 H          1 MOL1         0.3769
     106    C31     21.426152   13.927697   20.712618 C.3        1 MOL1         0.2972
     107    H51     21.031001   12.970884   20.348055 H          1 MOL1         0.0751
     108    O26     20.366104   14.879517   20.951848 O.3        1 MOL1        -0.3740
     109    C32     22.265770   13.737185   22.005766 C.3        1 MOL1         0.1003
     110    H52     23.128401   13.112739   21.739180 H          1 MOL1         0.0783
     111    O27     21.525562   13.076372   23.041916 O.3        1 MOL1        -0.5519
     112    H53     20.776790   13.677020   23.285703 H          1 MOL1         0.3769
     113    C33     22.804068   15.102944   22.497840 C.3        1 MOL1         0.1053
     114    H54     21.947114   15.726968   22.788728 H          1 MOL1         0.0783
     115    O28     23.666251   14.909970   23.624324 O.3        1 MOL1        -0.5519
     116    H55     23.196145   14.268232   24.201708 H          1 MOL1         0.3769
     117    C34     23.573266   15.830722   21.367270 C.3        1 MOL1         0.1018
     118    H56     24.539637   15.330087   21.223311 H          1 MOL1         0.0783
     119    C35     22.792299   15.841261   20.023752 C.3        1 MOL1         0.1043
     120    H57     21.934935   16.508553   20.144811 H          1 MOL1         0.0783
     121    O29     22.315103   14.503795   19.727777 O.3        1 MOL1        -0.3740
     122    C36     23.588091   16.374736   18.803769 C.3        1 MOL1         0.0138
     123    H58     23.401642   17.451951   18.713237 H          1 MOL1         0.0794
     124    H59     23.185158   15.909845   17.894048 H          1 MOL1         0.0794
     125    O30     24.998522   16.139778   18.894173 O.3        1 MOL1        -0.5486
     126    H60     25.358139   16.792497   19.539036 H          1 MOL1         0.3769
     127    C1      19.145160   19.962112   25.590817 C.2        1 MOL1         0.6168
     128    O1      18.016151   20.412819   25.639949 O.co2      1 MOL1        -0.6703
     129    O2      19.686007   19.381865   26.511936 O.co2      1 MOL1        -0.6703
     130    C2      19.923332   20.129876   24.289912 C.3        1 MOL1        -0.1963
     131    H1      20.995513   20.064493   24.509883 H          1 MOL1         0.0750
     132    H2      19.736456   21.143932   23.925310 H          1 MOL1         0.0750
     133    C3      19.534419   19.085994   23.213685 C.3        1 MOL1        -0.1860
     134    H3      19.931136   18.104204   23.505667 H          1 MOL1         0.0752
     135    H4      18.440505   18.988503   23.173574 H          1 MOL1         0.0752
     136    C4      20.059385   19.483245   21.818978 C.3        1 MOL1        -0.1858
     137    H5      21.138211   19.669204   21.865961 H          1 MOL1         0.0752
     138    H6      19.582094   20.419587   21.510066 H          1 MOL1         0.0752
     139    C5      19.771591   18.401284   20.764272 C.3        1 MOL1        -0.1858
     140    H7      20.252301   17.469266   21.075656 H          1 MOL1         0.0752
     141    H8      18.695263   18.204019   20.729036 H          1 MOL1         0.0752
     142    C6      20.278833   18.810895   19.366163 C.3        1 MOL1        -0.1858
     143    H9      21.364423   18.969717   19.404835 H          1 MOL1         0.0752
     144    H10     19.825043   19.767943   19.079625 H          1 MOL1         0.0752
     145    C7      19.941952   17.752348   18.295918 C.3        1 MOL1        -0.1834
     146    H11     20.325505   16.769264   18.597602 H          1 MOL1         0.0752
     147    H12     18.853339   17.652644   18.212107 H          1 MOL1         0.0752
     148    C8      20.526498   18.132250   16.921581 C.3        1 MOL1        -0.2849
     149    H13     20.274826   17.371877   16.171174 H          1 MOL1         0.0764
     150    H14     20.125088   19.094342   16.577691 H          1 MOL1         0.0764
     151    H15     21.619856   18.214369   16.967706 H          1 MOL1         0.0764
@<TRIPOS>BOND
    1     1     2    1
    2     1     3    1
    3     1     4    1
    4     4     5    1
    5     4     6    1
    6     6     7    1
    7     4     8    1
    8     8     9    1
    9     8    10    1
   10    10    11    1
   11     8    12    1
   12    12    13    1
   13    12    14    1
   14    14    15    1
   15     1    16    1
   16    14    16    1
   17    14    17    1
   18    17    18    1
   19    17    19    1
   20    17    20    1
   21    20    21    1
   22    22    23    1
   23    22    24    1
   24    22    25    1
   25    25    26    1
   26    25    27    1
   27    27    28    1
   28    25    29    1
   29    29    30    1
   30    29    31    1
   31    31    32    1
   32     3    33    1
   33    29    33    1
   34    33    34    1
   35    33    35    1
   36    35    36    1
   37    22    37    1
   38    35    37    1
   39    35    38    1
   40    38    39    1
   41    38    40    1
   42    38    41    1
   43    41    42    1
   44    43    44    1
   45    43    45    1
   46    43    46    1
   47    46    47    1
   48    46    48    1
   49    48    49    1
   50    46    50    1
   51    50    51    1
   52    50    52    1
   53    52    53    1
   54    24    54    1
   55    50    54    1
   56    54    55    1
   57    54    56    1
   58    56    57    1
   59    43    58    1
   60    56    58    1
   61    56    59    1
   62    59    60    1
   63    59    61    1
   64    59    62    1
   65    62    63    1
   66    64    65    1
   67    64    66    1
   68    64    67    1
   69    67    68    1
   70    67    69    1
   71    69    70    1
   72    67    71    1
   73    71    72    1
   74    71    73    1
   75    73    74    1
   76    45    75    1
   77    71    75    1
   78    75    76    1
   79    75    77    1
   80    77    78    1
   81    64    79    1
   82    77    79    1
   83    77    80    1
   84    80    81    1
   85    80    82    1
   86    80    83    1
   87    83    84    1
   88    85    86    1
   89    85    87    1
   90    85    88    1
   91    88    89    1
   92    88    90    1
   93    90    91    1
   94    88    92    1
   95    92    93    1
   96    92    94    1
   97    94    95    1
   98    66    96    1
   99    92    96    1
  100    96    97    1
  101    96    98    1
  102    98    99    1
  103    85   100    1
  104    98   100    1
  105    98   101    1
  106   101   102    1
  107   101   103    1
  108   101   104    1
  109   104   105    1
  110   106   107    1
  111    12   108    1
  112   106   108    1
  113   106   109    1
  114   109   110    1
  115   109   111    1
  116   111   112    1
  117   109   113    1
  118   113   114    1
  119   113   115    1
  120   115   116    1
  121    87   117    1
  122   113   117    1
  123   117   118    1
  124   117   119    1
  125   119   120    1
  126   106   121    1
  127   119   121    1
  128   119   122    1
  129   122   123    1
  130   122   124    1
  131   122   125    1
  132   125   126    1
  133   127   128    1
  134   127   129    2
  135   127   130    1
  136   130   131    1
  137   130   132    1
  138   130   133    1
  139   133   134    1
  140   133   135    1
  141   133   136    1
  142   136   137    1
  143   136   138    1
  144   136   139    1
  145   139   140    1
  146   139   141    1
  147   139   142    1
  148   142   143    1
  149   142   144    1
  150   142   145    1
  151   145   146    1
  152   145   147    1
  153   145   148    1
  154   148   149    1
  155   148   150    1
  156   148   151    1
@<TRIPOS>SUBSTRUCTURE
       1 MOL1            1 RESIDUE      1      MOL     
       2 MOL1          151 RESIDUE      1      MOL     
@<SCITEGIC>MOL_PROPERTY
feprocess Rank
SciTegic.value.IntegerValue
7

@<SCITEGIC>MOL_PROPERTY
Conf_Id
SciTegic.value.IntegerValue
602

@<SCITEGIC>MOL_PROPERTY
Probability
SciTegic.value.DoubleValue
2.25

@<SCITEGIC>MOL_PROPERTY
G
SciTegic.value.DoubleValue
516.218

@<SCITEGIC>MOL_PROPERTY
E
SciTegic.value.DoubleValue
319.246

@<SCITEGIC>MOL_PROPERTY
-TS
SciTegic.value.DoubleValue
196.972

@<SCITEGIC>MOL_PROPERTY
U+W
SciTegic.value.DoubleValue
186.003

@<SCITEGIC>MOL_PROPERTY
U
SciTegic.value.DoubleValue
269.474

@<SCITEGIC>MOL_PROPERTY
W
SciTegic.value.DoubleValue
-83.470

@<SCITEGIC>MOL_PROPERTY
W(PB)
SciTegic.value.DoubleValue
-89.607

@<SCITEGIC>MOL_PROPERTY
W(SA)
SciTegic.value.DoubleValue
6.137

@<SCITEGIC>MOL_PROPERTY
Valence
SciTegic.value.DoubleValue
154.131

@<SCITEGIC>MOL_PROPERTY
Coulomb
SciTegic.value.DoubleValue
143.223

@<SCITEGIC>MOL_PROPERTY
VdW
SciTegic.value.DoubleValue
-27.880

@<SCITEGIC>MOL_PROPERTY
VdW6
SciTegic.value.DoubleValue
-187.199

@<SCITEGIC>MOL_PROPERTY
VdW12
SciTegic.value.DoubleValue
159.318

@<SCITEGIC>MOL_PROPERTY
Bond
SciTegic.value.DoubleValue
4.833

@<SCITEGIC>MOL_PROPERTY
Angle
SciTegic.value.DoubleValue
13.497

@<SCITEGIC>MOL_PROPERTY
Pdih
SciTegic.value.DoubleValue
135.801

@<SCITEGIC>MOL_PROPERTY
Idih
SciTegic.value.DoubleValue
0.000

@<SCITEGIC>MOL_PROPERTY
Tether
SciTegic.value.DoubleValue
0.000

@<TRIPOS>MOLECULE
CD_guest-8_fast_vm2_rndm.mol2 : feprocess host+ligand conformer 8
         151         156           2
SMALL
USER_CHARGES
 
@<TRIPOS>ATOM
       1    C1      16.149777   15.099045   20.631299 C.3        1 MOL1         0.2972
       2    H1      15.081337   15.053829   20.383996 H          1 MOL1         0.0751
       3    O1      16.545981   16.421938   21.056127 O.3        1 MOL1        -0.3740
       4    C2      16.514740   14.082078   21.742590 C.3        1 MOL1         0.1003
       5    H2      16.341075   13.077464   21.335407 H          1 MOL1         0.0783
       6    O2      15.702600   14.254145   22.912941 O.3        1 MOL1        -0.5519
       7    H3      15.825636   15.188331   23.219393 H          1 MOL1         0.3769
       8    C3      18.017625   14.202584   22.090546 C.3        1 MOL1         0.1053
       9    H4      18.188091   15.195233   22.531121 H          1 MOL1         0.0783
      10    O3      18.379894   13.190382   23.035507 O.3        1 MOL1        -0.5519
      11    H5      17.659061   13.194634   23.704163 H          1 MOL1         0.3769
      12    C4      18.902526   14.074296   20.823976 C.3        1 MOL1         0.1018
      13    H6      18.969609   13.012489   20.555252 H          1 MOL1         0.0783
      14    C5      18.370830   14.897923   19.614477 C.3        1 MOL1         0.1043
      15    H7      18.585324   15.953322   19.804715 H          1 MOL1         0.0783
      16    O4      16.937149   14.740486   19.476015 O.3        1 MOL1        -0.3740
      17    C6      19.039743   14.544700   18.263678 C.3        1 MOL1         0.0138
      18    H8      20.074704   14.911086   18.274171 H          1 MOL1         0.0794
      19    H9      18.515051   15.089504   17.467568 H          1 MOL1         0.0794
      20    O5      19.022013   13.138554   17.988005 O.3        1 MOL1        -0.5486
      21    H10     19.786343   12.733893   18.449047 H          1 MOL1         0.3769
      22    C7      15.041547   20.154291   22.094911 C.3        1 MOL1         0.2972
      23    H11     14.403821   21.001594   22.379043 H          1 MOL1         0.0751
      24    O6      16.387154   20.580801   21.813501 O.3        1 MOL1        -0.3740
      25    C8      15.094834   19.129461   23.251749 C.3        1 MOL1         0.1003
      26    H12     14.071435   18.772787   23.426368 H          1 MOL1         0.0783
      27    O7      15.588417   19.752200   24.447635 O.3        1 MOL1        -0.5519
      28    H13     16.088819   20.553321   24.163975 H          1 MOL1         0.3769
      29    C9      15.966264   17.911673   22.866454 C.3        1 MOL1         0.1053
      30    H14     17.000656   18.254941   22.749476 H          1 MOL1         0.0783
      31    O8      15.897548   16.941690   23.914891 O.3        1 MOL1        -0.5519
      32    H15     16.085549   17.450591   24.735995 H          1 MOL1         0.3769
      33    C10     15.499341   17.298198   21.520988 C.3        1 MOL1         0.1018
      34    H16     14.555483   16.761837   21.686554 H          1 MOL1         0.0783
      35    C11     15.312332   18.380562   20.421476 C.3        1 MOL1         0.1043
      36    H17     16.310570   18.740395   20.145250 H          1 MOL1         0.0783
      37    O9      14.525358   19.494839   20.918949 O.3        1 MOL1        -0.3740
      38    C12     14.644487   17.843073   19.133400 C.3        1 MOL1         0.0138
      39    H18     15.354515   17.175893   18.625730 H          1 MOL1         0.0794
      40    H19     14.451069   18.687497   18.458232 H          1 MOL1         0.0794
      41    O10     13.428728   17.137267   19.412135 O.3        1 MOL1        -0.5486
      42    H20     13.025839   16.887153   18.552311 H          1 MOL1         0.3769
      43    C13     18.494242   24.096854   20.992597 C.3        1 MOL1         0.2972
      44    H21     18.762751   25.113699   20.680487 H          1 MOL1         0.0751
      45    O11     19.652804   23.326733   21.361687 O.3        1 MOL1        -0.3740
      46    C14     17.572572   24.146701   22.238055 C.3        1 MOL1         0.1003
      47    H22     16.677950   24.722864   21.968414 H          1 MOL1         0.0783
      48    O12     18.245592   24.792923   23.331159 O.3        1 MOL1        -0.5519
      49    H23     19.192614   24.508702   23.295588 H          1 MOL1         0.3769
      50    C15     17.123034   22.722367   22.648049 C.3        1 MOL1         0.1053
      51    H24     18.008741   22.177406   22.998316 H          1 MOL1         0.0783
      52    O13     16.157546   22.804296   23.700836 O.3        1 MOL1        -0.5519
      53    H25     16.525670   23.458103   24.336006 H          1 MOL1         0.3769
      54    C16     16.531296   21.961074   21.436200 C.3        1 MOL1         0.1018
      55    H26     15.568697   22.415360   21.166229 H          1 MOL1         0.0783
      56    C17     17.477238   22.017019   20.209309 C.3        1 MOL1         0.1043
      57    H27     18.394623   21.471790   20.463994 H          1 MOL1         0.0783
      58    O14     17.800402   23.401999   19.933321 O.3        1 MOL1        -0.3740
      59    C18     16.899048   21.373212   18.921490 C.3        1 MOL1         0.0138
      60    H28     17.161669   20.308143   18.917336 H          1 MOL1         0.0794
      61    H29     17.396338   21.822299   18.051576 H          1 MOL1         0.0794
      62    O15     15.477761   21.517839   18.805038 O.3        1 MOL1        -0.5486
      63    H30     15.067713   20.945263   19.494357 H          1 MOL1         0.3769
      64    C19     23.693457   22.839836   20.824471 C.3        1 MOL1         0.2972
      65    H31     24.766006   22.891829   20.597506 H          1 MOL1         0.0751
      66    O16     23.285616   21.492519   21.149706 O.3        1 MOL1        -0.3740
      67    C20     23.313052   23.804563   21.978784 C.3        1 MOL1         0.1003
      68    H32     23.493373   24.825485   21.617691 H          1 MOL1         0.0783
      69    O17     24.108887   23.587449   23.152578 O.3        1 MOL1        -0.5519
      70    H33     23.898750   22.675303   23.477393 H          1 MOL1         0.3769
      71    C21     21.804531   23.674617   22.297542 C.3        1 MOL1         0.1053
      72    H34     21.622150   22.662656   22.685892 H          1 MOL1         0.0783
      73    O18     21.428340   24.643081   23.283230 O.3        1 MOL1        -0.5519
      74    H35     22.117862   24.581573   23.980845 H          1 MOL1         0.3769
      75    C22     20.941407   23.871747   21.025204 C.3        1 MOL1         0.1018
      76    H36     20.892872   24.947090   20.811359 H          1 MOL1         0.0783
      77    C23     21.488512   23.104807   19.783622 C.3        1 MOL1         0.1043
      78    H37     21.263820   22.042577   19.916718 H          1 MOL1         0.0783
      79    O19     22.926276   23.265045   19.678167 O.3        1 MOL1        -0.3740
      80    C24     20.853721   23.524414   18.435240 C.3        1 MOL1         0.0138
      81    H38     19.835623   23.118368   18.379485 H          1 MOL1         0.0794
      82    H39     21.427674   23.054335   17.625637 H          1 MOL1         0.0794
      83    O20     20.827004   24.945440   18.252481 O.3        1 MOL1        -0.5486
      84    H40     19.981855   25.276938   18.622192 H          1 MOL1         0.3769
      85    C25     24.652683   17.780591   22.385902 C.3        1 MOL1         0.2972
      86    H41     25.232678   16.928089   22.762744 H          1 MOL1         0.0751
      87    O21     23.390184   17.359549   21.837776 O.3        1 MOL1        -0.3740
      88    C26     24.367361   18.774659   23.536632 C.3        1 MOL1         0.1003
      89    H42     25.334022   19.137765   23.908422 H          1 MOL1         0.0783
      90    O22     23.676991   18.103372   24.601785 O.3        1 MOL1        -0.5519
      91    H43     23.365166   17.238982   24.243302 H          1 MOL1         0.3769
      92    C27     23.566660   19.996912   23.020640 C.3        1 MOL1         0.1053
      93    H44     22.571480   19.653946   22.713108 H          1 MOL1         0.0783
      94    O23     23.436703   20.968247   24.064006 O.3        1 MOL1        -0.5519
      95    H45     22.747130   20.606580   24.685890 H          1 MOL1         0.3769
      96    C28     24.258090   20.638421   21.787720 C.3        1 MOL1         0.1018
      97    H46     25.137505   21.200297   22.129206 H          1 MOL1         0.0783
      98    C29     24.683502   19.583854   20.726144 C.3        1 MOL1         0.1043
      99    H47     23.772432   19.210076   20.243828 H          1 MOL1         0.0783
     100    O24     25.378811   18.472986   21.348919 O.3        1 MOL1        -0.3740
     101    C30     25.584030   20.161478   19.608379 C.3        1 MOL1         0.0138
     102    H48     24.974824   20.824857   18.979473 H          1 MOL1         0.0794
     103    H49     25.927930   19.334707   18.972387 H          1 MOL1         0.0794
     104    O25     26.703286   20.884823   20.135621 O.3        1 MOL1        -0.5486
     105    H50     27.267767   21.153642   19.378387 H          1 MOL1         0.3769
     106    C31     21.348620   13.828989   20.941829 C.3        1 MOL1         0.2972
     107    H51     21.091508   12.807878   20.633995 H          1 MOL1         0.0751
     108    O26     20.177367   14.627324   21.193500 O.3        1 MOL1        -0.3740
     109    C32     22.166990   13.804403   22.258155 C.3        1 MOL1         0.1003
     110    H52     23.084358   13.232485   22.067316 H          1 MOL1         0.0783
     111    O27     21.422008   13.166267   23.308225 O.3        1 MOL1        -0.5519
     112    H53     20.470349   13.408415   23.181810 H          1 MOL1         0.3769
     113    C33     22.575512   15.238965   22.676567 C.3        1 MOL1         0.1053
     114    H54     21.664395   15.797090   22.932564 H          1 MOL1         0.0783
     115    O28     23.439703   15.174307   23.814666 O.3        1 MOL1        -0.5519
     116    H55     23.021268   14.516212   24.414069 H          1 MOL1         0.3769
     117    C34     23.278825   15.966381   21.503333 C.3        1 MOL1         0.1018
     118    H56     24.262833   15.508572   21.336815 H          1 MOL1         0.0783
     119    C35     22.451175   15.876988   20.193788 C.3        1 MOL1         0.1043
     120    H57     21.516091   16.431251   20.339643 H          1 MOL1         0.0783
     121    O29     22.139854   14.487162   19.926152 O.3        1 MOL1        -0.3740
     122    C36     23.154241   16.494139   18.955978 C.3        1 MOL1         0.0138
     123    H58     22.897447   17.560334   18.909239 H          1 MOL1         0.0794
     124    H59     22.743873   16.029492   18.049634 H          1 MOL1         0.0794
     125    O30     24.580183   16.349467   18.985264 O.3        1 MOL1        -0.5486
     126    H60     24.914940   16.913141   19.719624 H          1 MOL1         0.3769
     127    C1      20.044814   19.718740   25.093810 C.2        1 MOL1         0.6168
     128    O1      21.086934   20.253592   25.420106 O.co2      1 MOL1        -0.6703
     129    O2      19.304410   19.143414   25.867181 O.co2      1 MOL1        -0.6703
     130    C2      19.634454   19.791336   23.626929 C.3        1 MOL1        -0.1963
     131    H1      20.198919   20.604954   23.158816 H          1 MOL1         0.0750
     132    H2      18.575511   20.066546   23.593333 H          1 MOL1         0.0750
     133    C3      19.849865   18.457209   22.868258 C.3        1 MOL1        -0.1860
     134    H3      20.884547   18.115092   22.998395 H          1 MOL1         0.0752
     135    H4      19.215705   17.687622   23.329055 H          1 MOL1         0.0752
     136    C4      19.512546   18.558657   21.363066 C.3        1 MOL1        -0.1858
     137    H5      18.552367   19.069493   21.224806 H          1 MOL1         0.0752
     138    H6      19.388092   17.540359   20.984007 H          1 MOL1         0.0752
     139    C5      20.616374   19.271301   20.548814 C.3        1 MOL1        -0.1858
     140    H7      20.839140   20.237252   21.013445 H          1 MOL1         0.0752
     141    H8      21.537989   18.687705   20.620158 H          1 MOL1         0.0752
     142    C6      20.284351   19.502847   19.053769 C.3        1 MOL1        -0.1858
     143    H9      21.199722   19.833619   18.544682 H          1 MOL1         0.0752
     144    H10     19.573817   20.329831   18.960732 H          1 MOL1         0.0752
     145    C7      19.711771   18.267244   18.325257 C.3        1 MOL1        -0.1834
     146    H11     20.372238   17.405215   18.475934 H          1 MOL1         0.0752
     147    H12     18.732838   18.006641   18.748219 H          1 MOL1         0.0752
     148    C8      19.544560   18.526229   16.815773 C.3        1 MOL1        -0.2849
     149    H13     20.510194   18.757538   16.347788 H          1 MOL1         0.0764
     150    H14     19.128531   17.642264   16.315673 H          1 MOL1         0.0764
     151    H15     18.865074   19.369291   16.635442 H          1 MOL1         0.0764
@<TRIPOS>BOND
    1     1     2    1
    2     1     3    1
    3     1     4    1
    4     4     5    1
    5     4     6    1
    6     6     7    1
    7     4     8    1
    8     8     9    1
    9     8    10    1
   10    10    11    1
   11     8    12    1
   12    12    13    1
   13    12    14    1
   14    14    15    1
   15     1    16    1
   16    14    16    1
   17    14    17    1
   18    17    18    1
   19    17    19    1
   20    17    20    1
   21    20    21    1
   22    22    23    1
   23    22    24    1
   24    22    25    1
   25    25    26    1
   26    25    27    1
   27    27    28    1
   28    25    29    1
   29    29    30    1
   30    29    31    1
   31    31    32    1
   32     3    33    1
   33    29    33    1
   34    33    34    1
   35    33    35    1
   36    35    36    1
   37    22    37    1
   38    35    37    1
   39    35    38    1
   40    38    39    1
   41    38    40    1
   42    38    41    1
   43    41    42    1
   44    43    44    1
   45    43    45    1
   46    43    46    1
   47    46    47    1
   48    46    48    1
   49    48    49    1
   50    46    50    1
   51    50    51    1
   52    50    52    1
   53    52    53    1
   54    24    54    1
   55    50    54    1
   56    54    55    1
   57    54    56    1
   58    56    57    1
   59    43    58    1
   60    56    58    1
   61    56    59    1
   62    59    60    1
   63    59    61    1
   64    59    62    1
   65    62    63    1
   66    64    65    1
   67    64    66    1
   68    64    67    1
   69    67    68    1
   70    67    69    1
   71    69    70    1
   72    67    71    1
   73    71    72    1
   74    71    73    1
   75    73    74    1
   76    45    75    1
   77    71    75    1
   78    75    76    1
   79    75    77    1
   80    77    78    1
   81    64    79    1
   82    77    79    1
   83    77    80    1
   84    80    81    1
   85    80    82    1
   86    80    83    1
   87    83    84    1
   88    85    86    1
   89    85    87    1
   90    85    88    1
   91    88    89    1
   92    88    90    1
   93    90    91    1
   94    88    92    1
   95    92    93    1
   96    92    94    1
   97    94    95    1
   98    66    96    1
   99    92    96    1
  100    96    97    1
  101    96    98    1
  102    98    99    1
  103    85   100    1
  104    98   100    1
  105    98   101    1
  106   101   102    1
  107   101   103    1
  108   101   104    1
  109   104   105    1
  110   106   107    1
  111    12   108    1
  112   106   108    1
  113   106   109    1
  114   109   110    1
  115   109   111    1
  116   111   112    1
  117   109   113    1
  118   113   114    1
  119   113   115    1
  120   115   116    1
  121    87   117    1
  122   113   117    1
  123   117   118    1
  124   117   119    1
  125   119   120    1
  126   106   121    1
  127   119   121    1
  128   119   122    1
  129   122   123    1
  130   122   124    1
  131   122   125    1
  132   125   126    1
  133   127   128    1
  134   127   129    2
  135   127   130    1
  136   130   131    1
  137   130   132    1
  138   130   133    1
  139   133   134    1
  140   133   135    1
  141   133   136    1
  142   136   137    1
  143   136   138    1
  144   136   139    1
  145   139   140    1
  146   139   141    1
  147   139   142    1
  148   142   143    1
  149   142   144    1
  150   142   145    1
  151   145   146    1
  152   145   147    1
  153   145   148    1
  154   148   149    1
  155   148   150    1
  156   148   151    1
@<TRIPOS>SUBSTRUCTURE
       1 MOL1            1 RESIDUE      1      MOL     
       2 MOL1          151 RESIDUE      1      MOL     
@<SCITEGIC>MOL_PROPERTY
feprocess Rank
SciTegic.value.IntegerValue
8

@<SCITEGIC>MOL_PROPERTY
Conf_Id
SciTegic.value.IntegerValue
273

@<SCITEGIC>MOL_PROPERTY
Probability
SciTegic.value.DoubleValue
2.14

@<SCITEGIC>MOL_PROPERTY
G
SciTegic.value.DoubleValue
516.247

@<SCITEGIC>MOL_PROPERTY
E
SciTegic.value.DoubleValue
321.177

@<SCITEGIC>MOL_PROPERTY
-TS
SciTegic.value.DoubleValue
195.070

@<SCITEGIC>MOL_PROPERTY
U+W
SciTegic.value.DoubleValue
187.935

@<SCITEGIC>MOL_PROPERTY
U
SciTegic.value.DoubleValue
270.364

@<SCITEGIC>MOL_PROPERTY
W
SciTegic.value.DoubleValue
-82.429

@<SCITEGIC>MOL_PROPERTY
W(PB)
SciTegic.value.DoubleValue
-88.443

@<SCITEGIC>MOL_PROPERTY
W(SA)
SciTegic.value.DoubleValue
6.014

@<SCITEGIC>MOL_PROPERTY
Valence
SciTegic.value.DoubleValue
156.222

@<SCITEGIC>MOL_PROPERTY
Coulomb
SciTegic.value.DoubleValue
145.378

@<SCITEGIC>MOL_PROPERTY
VdW
SciTegic.value.DoubleValue
-31.236

@<SCITEGIC>MOL_PROPERTY
VdW6
SciTegic.value.DoubleValue
-191.889

@<SCITEGIC>MOL_PROPERTY
VdW12
SciTegic.value.DoubleValue
160.653

@<SCITEGIC>MOL_PROPERTY
Bond
SciTegic.value.DoubleValue
4.749

@<SCITEGIC>MOL_PROPERTY
Angle
SciTegic.value.DoubleValue
14.134

@<SCITEGIC>MOL_PROPERTY
Pdih
SciTegic.value.DoubleValue
137.337

@<SCITEGIC>MOL_PROPERTY
Idih
SciTegic.value.DoubleValue
0.001

@<SCITEGIC>MOL_PROPERTY
Tether
SciTegic.value.DoubleValue
0.000

