@<TRIPOS>MOLECULE
CD_guest-s12_fast_vm2_rndm.mol2 : feprocess host+ligand conformer 1
         152         157           2
SMALL
USER_CHARGES
 
@<TRIPOS>ATOM
       1    C1      16.431266   15.398805   20.513132 C.3        1 MOL1         0.2972
       2    H1      15.427649   15.213904   20.108999 H          1 MOL1         0.0751
       3    O1      16.601988   16.783471   20.881323 O.3        1 MOL1        -0.3740
       4    C2      16.715705   14.492467   21.745301 C.3        1 MOL1         0.1003
       5    H2      16.654417   13.452873   21.397886 H          1 MOL1         0.0783
       6    O2      15.753332   14.681497   22.792850 O.3        1 MOL1        -0.5519
       7    H3      15.822051   15.624932   23.086309 H          1 MOL1         0.3769
       8    C3      18.151649   14.728858   22.274634 C.3        1 MOL1         0.1053
       9    H4      18.219292   15.759560   22.649203 H          1 MOL1         0.0783
      10    O3      18.438990   13.806990   23.331593 O.3        1 MOL1        -0.5519
      11    H5      17.628680   13.794348   23.888756 H          1 MOL1         0.3769
      12    C4      19.175639   14.555063   21.127825 C.3        1 MOL1         0.1018
      13    H6      19.205312   13.494815   20.843213 H          1 MOL1         0.0783
      14    C5      18.798310   15.395984   19.880042 C.3        1 MOL1         0.1043
      15    H7      18.879693   16.458155   20.140053 H          1 MOL1         0.0783
      16    O4      17.429361   15.095079   19.511152 O.3        1 MOL1        -0.3740
      17    C6      19.713579   15.159420   18.650487 C.3        1 MOL1         0.0138
      18    H8      20.562061   15.850827   18.712973 H          1 MOL1         0.0794
      19    H9      19.154947   15.422199   17.742300 H          1 MOL1         0.0794
      20    O5      20.203377   13.816094   18.555831 O.3        1 MOL1        -0.5486
      21    H10     20.873388   13.696436   19.268285 H          1 MOL1         0.3769
      22    C7      14.681944   20.339117   21.614160 C.3        1 MOL1         0.2972
      23    H11     14.007504   21.179487   21.823188 H          1 MOL1         0.0751
      24    O6      15.989464   20.784812   21.199505 O.3        1 MOL1        -0.3740
      25    C8      14.834312   19.439158   22.865390 C.3        1 MOL1         0.1003
      26    H12     13.849923   19.003146   23.080522 H          1 MOL1         0.0783
      27    O7      15.280758   20.181946   24.010791 O.3        1 MOL1        -0.5519
      28    H13     15.514182   21.091742   23.701610 H          1 MOL1         0.3769
      29    C9      15.816257   18.286394   22.569763 C.3        1 MOL1         0.1053
      30    H14     16.801988   18.733155   22.399834 H          1 MOL1         0.0783
      31    O8      15.870580   17.414880   23.702527 O.3        1 MOL1        -0.5519
      32    H15     15.896084   18.020826   24.477628 H          1 MOL1         0.3769
      33    C10     15.420405   17.501130   21.293721 C.3        1 MOL1         0.1018
      34    H16     14.591112   16.825565   21.542016 H          1 MOL1         0.0783
      35    C11     15.017000   18.430133   20.109623 C.3        1 MOL1         0.1043
      36    H17     15.936286   18.864801   19.696304 H          1 MOL1         0.0783
      37    O9      14.151997   19.506138   20.561592 O.3        1 MOL1        -0.3740
      38    C12     14.310586   17.685389   18.951795 C.3        1 MOL1         0.0138
      39    H18     15.051482   17.058980   18.436843 H          1 MOL1         0.0794
      40    H19     13.950600   18.427311   18.226396 H          1 MOL1         0.0794
      41    O10     13.224639   16.872752   19.413954 O.3        1 MOL1        -0.5486
      42    H20     12.773289   16.500806   18.624842 H          1 MOL1         0.3769
      43    C13     18.432984   24.066430   20.774361 C.3        1 MOL1         0.2972
      44    H21     18.902669   25.035960   20.564913 H          1 MOL1         0.0751
      45    O11     19.423875   23.042771   21.019168 O.3        1 MOL1        -0.3740
      46    C14     17.457742   24.165544   21.978772 C.3        1 MOL1         0.1003
      47    H22     16.664069   24.866904   21.689736 H          1 MOL1         0.0783
      48    O12     18.101406   24.661940   23.161461 O.3        1 MOL1        -0.5519
      49    H23     18.777215   23.987347   23.424546 H          1 MOL1         0.3769
      50    C15     16.798690   22.794090   22.259218 C.3        1 MOL1         0.1053
      51    H24     17.581202   22.105180   22.606759 H          1 MOL1         0.0783
      52    O13     15.804285   22.951708   23.275131 O.3        1 MOL1        -0.5519
      53    H25     16.207771   23.558761   23.936458 H          1 MOL1         0.3769
      54    C16     16.159725   22.196199   20.978214 C.3        1 MOL1         0.1018
      55    H26     15.205751   22.700768   20.779027 H          1 MOL1         0.0783
      56    C17     17.076626   22.319448   19.731239 C.3        1 MOL1         0.1043
      57    H27     17.890165   21.597125   19.847982 H          1 MOL1         0.0783
      58    O14     17.643316   23.648929   19.640751 O.3        1 MOL1        -0.3740
      59    C18     16.367837   21.981135   18.396438 C.3        1 MOL1         0.0138
      60    H28     16.198825   20.896981   18.353760 H          1 MOL1         0.0794
      61    H29     17.044549   22.235838   17.570027 H          1 MOL1         0.0794
      62    O15     15.121607   22.669851   18.239294 O.3        1 MOL1        -0.5486
      63    H30     14.456152   22.208631   18.793651 H          1 MOL1         0.3769
      64    C19     23.392272   22.487032   22.132629 C.3        1 MOL1         0.2972
      65    H31     24.418036   22.616004   22.500219 H          1 MOL1         0.0751
      66    O16     23.226821   21.226057   21.452933 O.3        1 MOL1        -0.3740
      67    C20     22.386561   22.555698   23.310919 C.3        1 MOL1         0.1003
      68    H32     22.512940   23.536162   23.788354 H          1 MOL1         0.0783
      69    O17     22.634822   21.521231   24.277733 O.3        1 MOL1        -0.5519
      70    H33     23.579564   21.253210   24.178162 H          1 MOL1         0.3769
      71    C21     20.932990   22.449542   22.798060 C.3        1 MOL1         0.1053
      72    H34     20.799879   21.442366   22.391067 H          1 MOL1         0.0783
      73    O18     20.037822   22.648646   23.895702 O.3        1 MOL1        -0.5519
      74    H35     20.423227   22.110923   24.624004 H          1 MOL1         0.3769
      75    C22     20.645796   23.462941   21.662173 C.3        1 MOL1         0.1018
      76    H36     20.559033   24.466641   22.098922 H          1 MOL1         0.0783
      77    C23     21.760216   23.456059   20.578842 C.3        1 MOL1         0.1043
      78    H37     21.690309   22.512789   20.021510 H          1 MOL1         0.0783
      79    O19     23.064496   23.542720   21.204870 O.3        1 MOL1        -0.3740
      80    C24     21.633089   24.607061   19.552184 C.3        1 MOL1         0.0138
      81    H38     20.768342   24.403466   18.906173 H          1 MOL1         0.0794
      82    H39     22.525613   24.605329   18.912229 H          1 MOL1         0.0794
      83    O20     21.476104   25.883108   20.185652 O.3        1 MOL1        -0.5486
      84    H40     21.488670   26.568659   19.482473 H          1 MOL1         0.3769
      85    C25     25.211754   17.628198   21.047132 C.3        1 MOL1         0.2972
      86    H41     25.887355   16.790788   20.829740 H          1 MOL1         0.0751
      87    O21     23.883419   17.179677   21.381380 O.3        1 MOL1        -0.3740
      88    C26     25.736501   18.490073   22.222090 C.3        1 MOL1         0.1003
      89    H42     26.690646   18.929745   21.903442 H          1 MOL1         0.0783
      90    O22     25.958839   17.701454   23.400992 O.3        1 MOL1        -0.5519
      91    H43     25.125348   17.198375   23.585463 H          1 MOL1         0.3769
      92    C27     24.751710   19.648703   22.517453 C.3        1 MOL1         0.1053
      93    H44     23.814596   19.212693   22.890680 H          1 MOL1         0.0783
      94    O23     25.321614   20.492713   23.524044 O.3        1 MOL1        -0.5519
      95    H45     25.748681   19.873937   24.159729 H          1 MOL1         0.3769
      96    C28     24.427637   20.458823   21.227718 C.3        1 MOL1         0.1018
      97    H46     25.275514   21.110482   20.977553 H          1 MOL1         0.0783
      98    C29     24.121506   19.552134   20.003899 C.3        1 MOL1         0.1043
      99    H47     23.132995   19.103162   20.142004 H          1 MOL1         0.0783
     100    O24     25.115825   18.503438   19.903545 O.3        1 MOL1        -0.3740
     101    C30     24.113640   20.355140   18.681855 C.3        1 MOL1         0.0138
     102    H48     25.148646   20.477561   18.335319 H          1 MOL1         0.0794
     103    H49     23.709995   21.359249   18.870105 H          1 MOL1         0.0794
     104    O25     23.318369   19.704392   17.683906 O.3        1 MOL1        -0.5486
     105    H50     23.665116   19.986831   16.809404 H          1 MOL1         0.3769
     106    C31     21.401932   13.980078   21.910741 C.3        1 MOL1         0.2972
     107    H51     20.909995   13.010732   22.064543 H          1 MOL1         0.0751
     108    O26     20.449615   15.017872   21.605955 O.3        1 MOL1        -0.3740
     109    C32     22.169387   14.384250   23.190315 C.3        1 MOL1         0.1003
     110    H52     22.937598   13.621209   23.371519 H          1 MOL1         0.0783
     111    O27     21.278879   14.443298   24.316801 O.3        1 MOL1        -0.5519
     112    H53     20.357594   14.391526   23.960550 H          1 MOL1         0.3769
     113    C33     22.875595   15.743572   22.994733 C.3        1 MOL1         0.1053
     114    H54     22.100897   16.513174   22.919726 H          1 MOL1         0.0783
     115    O28     23.699875   16.015983   24.130923 O.3        1 MOL1        -0.5519
     116    H55     23.143460   15.779439   24.906684 H          1 MOL1         0.3769
     117    C34     23.717186   15.785510   21.694037 C.3        1 MOL1         0.1018
     118    H56     24.674827   15.279515   21.874928 H          1 MOL1         0.0783
     119    C35     22.992328   15.157587   20.469096 C.3        1 MOL1         0.1043
     120    H57     22.227901   15.872305   20.141364 H          1 MOL1         0.0783
     121    O29     22.344998   13.907954   20.822036 O.3        1 MOL1        -0.3740
     122    C36     23.926004   14.909203   19.260773 C.3        1 MOL1         0.0138
     123    H58     24.215884   15.881485   18.838962 H          1 MOL1         0.0794
     124    H59     23.362739   14.372414   18.485565 H          1 MOL1         0.0794
     125    O30     25.097166   14.170229   19.628842 O.3        1 MOL1        -0.5486
     126    H60     25.606376   13.990516   18.808502 H          1 MOL1         0.3769
     127    N1      20.360983   19.671841   17.251525 N.4        1 MOL1        -0.4857
     128    H1      21.360534   19.902597   17.416982 H          1 MOL1         0.3650
     129    H2      20.029531   20.343624   16.542810 H          1 MOL1         0.3650
     130    C1      19.570932   19.831414   18.536717 C.3        1 MOL1         0.0209
     131    H3      18.616765   19.312347   18.416654 H          1 MOL1         0.0967
     132    H4      19.374277   20.897678   18.671117 H          1 MOL1         0.0967
     133    C2      20.321661   19.305443   19.770843 C.3        1 MOL1        -0.1378
     134    H5      20.708300   18.297860   19.570811 H          1 MOL1         0.0993
     135    H6      21.186499   19.956142   19.943041 H          1 MOL1         0.0993
     136    C3      19.454954   19.279895   21.046842 C.3        1 MOL1        -0.1338
     137    H7      18.548948   18.685532   20.873370 H          1 MOL1         0.0993
     138    H8      19.124646   20.297193   21.293622 H          1 MOL1         0.0993
     139    C4      20.254851   18.685479   22.227952 C.3        1 MOL1        -0.1338
     140    H9      20.484735   17.636647   22.008820 H          1 MOL1         0.0993
     141    H10     21.219024   19.204955   22.320769 H          1 MOL1         0.0993
     142    C5      19.498663   18.773349   23.570474 C.3        1 MOL1        -0.1313
     143    H11     18.603747   18.140227   23.534877 H          1 MOL1         0.0993
     144    H12     19.158479   19.804274   23.742656 H          1 MOL1         0.0993
     145    C6      20.382482   18.324166   24.752617 C.3        1 MOL1        -0.2328
     146    H13     19.839681   18.426490   25.700891 H          1 MOL1         0.1004
     147    H14     21.294125   18.933143   24.819091 H          1 MOL1         0.1004
     148    H15     20.677425   17.272450   24.648702 H          1 MOL1         0.1004
     149    C7      20.240104   18.250694   16.718762 C.3        1 MOL1        -0.0781
     150    H16     20.786812   18.176952   15.776120 H          1 MOL1         0.0978
     151    H17     20.670167   17.559831   17.445223 H          1 MOL1         0.0978
     152    H18     19.186309   18.015339   16.555337 H          1 MOL1         0.0978
@<TRIPOS>BOND
    1     1     2    1
    2     1     3    1
    3     1     4    1
    4     4     5    1
    5     4     6    1
    6     6     7    1
    7     4     8    1
    8     8     9    1
    9     8    10    1
   10    10    11    1
   11     8    12    1
   12    12    13    1
   13    12    14    1
   14    14    15    1
   15     1    16    1
   16    14    16    1
   17    14    17    1
   18    17    18    1
   19    17    19    1
   20    17    20    1
   21    20    21    1
   22    22    23    1
   23    22    24    1
   24    22    25    1
   25    25    26    1
   26    25    27    1
   27    27    28    1
   28    25    29    1
   29    29    30    1
   30    29    31    1
   31    31    32    1
   32     3    33    1
   33    29    33    1
   34    33    34    1
   35    33    35    1
   36    35    36    1
   37    22    37    1
   38    35    37    1
   39    35    38    1
   40    38    39    1
   41    38    40    1
   42    38    41    1
   43    41    42    1
   44    43    44    1
   45    43    45    1
   46    43    46    1
   47    46    47    1
   48    46    48    1
   49    48    49    1
   50    46    50    1
   51    50    51    1
   52    50    52    1
   53    52    53    1
   54    24    54    1
   55    50    54    1
   56    54    55    1
   57    54    56    1
   58    56    57    1
   59    43    58    1
   60    56    58    1
   61    56    59    1
   62    59    60    1
   63    59    61    1
   64    59    62    1
   65    62    63    1
   66    64    65    1
   67    64    66    1
   68    64    67    1
   69    67    68    1
   70    67    69    1
   71    69    70    1
   72    67    71    1
   73    71    72    1
   74    71    73    1
   75    73    74    1
   76    45    75    1
   77    71    75    1
   78    75    76    1
   79    75    77    1
   80    77    78    1
   81    64    79    1
   82    77    79    1
   83    77    80    1
   84    80    81    1
   85    80    82    1
   86    80    83    1
   87    83    84    1
   88    85    86    1
   89    85    87    1
   90    85    88    1
   91    88    89    1
   92    88    90    1
   93    90    91    1
   94    88    92    1
   95    92    93    1
   96    92    94    1
   97    94    95    1
   98    66    96    1
   99    92    96    1
  100    96    97    1
  101    96    98    1
  102    98    99    1
  103    85   100    1
  104    98   100    1
  105    98   101    1
  106   101   102    1
  107   101   103    1
  108   101   104    1
  109   104   105    1
  110   106   107    1
  111    12   108    1
  112   106   108    1
  113   106   109    1
  114   109   110    1
  115   109   111    1
  116   111   112    1
  117   109   113    1
  118   113   114    1
  119   113   115    1
  120   115   116    1
  121    87   117    1
  122   113   117    1
  123   117   118    1
  124   117   119    1
  125   119   120    1
  126   106   121    1
  127   119   121    1
  128   119   122    1
  129   122   123    1
  130   122   124    1
  131   122   125    1
  132   125   126    1
  133   127   128    1
  134   127   129    1
  135   127   130    1
  136   130   131    1
  137   130   132    1
  138   130   133    1
  139   133   134    1
  140   133   135    1
  141   133   136    1
  142   136   137    1
  143   136   138    1
  144   136   139    1
  145   139   140    1
  146   139   141    1
  147   139   142    1
  148   142   143    1
  149   142   144    1
  150   142   145    1
  151   145   146    1
  152   145   147    1
  153   145   148    1
  154   127   149    1
  155   149   150    1
  156   149   151    1
  157   149   152    1
@<TRIPOS>SUBSTRUCTURE
       1 MOL1            1 RESIDUE      1      MOL     
       2 MOL1          152 RESIDUE      1      MOL     
@<SCITEGIC>MOL_PROPERTY
feprocess Rank
SciTegic.value.IntegerValue
1

@<SCITEGIC>MOL_PROPERTY
Conf_Id
SciTegic.value.IntegerValue
581

@<SCITEGIC>MOL_PROPERTY
Probability
SciTegic.value.DoubleValue
58.01

@<SCITEGIC>MOL_PROPERTY
G
SciTegic.value.DoubleValue
604.427

@<SCITEGIC>MOL_PROPERTY
E
SciTegic.value.DoubleValue
401.695

@<SCITEGIC>MOL_PROPERTY
-TS
SciTegic.value.DoubleValue
202.732

@<SCITEGIC>MOL_PROPERTY
U+W
SciTegic.value.DoubleValue
267.559

@<SCITEGIC>MOL_PROPERTY
U
SciTegic.value.DoubleValue
345.775

@<SCITEGIC>MOL_PROPERTY
W
SciTegic.value.DoubleValue
-78.217

@<SCITEGIC>MOL_PROPERTY
W(PB)
SciTegic.value.DoubleValue
-84.268

@<SCITEGIC>MOL_PROPERTY
W(SA)
SciTegic.value.DoubleValue
6.052

@<SCITEGIC>MOL_PROPERTY
Valence
SciTegic.value.DoubleValue
148.066

@<SCITEGIC>MOL_PROPERTY
Coulomb
SciTegic.value.DoubleValue
224.458

@<SCITEGIC>MOL_PROPERTY
VdW
SciTegic.value.DoubleValue
-26.749

@<SCITEGIC>MOL_PROPERTY
VdW6
SciTegic.value.DoubleValue
-182.088

@<SCITEGIC>MOL_PROPERTY
VdW12
SciTegic.value.DoubleValue
155.339

@<SCITEGIC>MOL_PROPERTY
Bond
SciTegic.value.DoubleValue
4.631

@<SCITEGIC>MOL_PROPERTY
Angle
SciTegic.value.DoubleValue
11.528

@<SCITEGIC>MOL_PROPERTY
Pdih
SciTegic.value.DoubleValue
131.908

@<SCITEGIC>MOL_PROPERTY
Idih
SciTegic.value.DoubleValue
0.000

@<SCITEGIC>MOL_PROPERTY
Tether
SciTegic.value.DoubleValue
0.000

