@<TRIPOS>MOLECULE
CD_guest-s9_fast_vm2_rndm.mol2 : feprocess host+ligand conformer 1
         146         151           2
SMALL
USER_CHARGES
 
@<TRIPOS>ATOM
       1    C1      16.207641   15.182290   20.597628 C.3        1 MOL1         0.2972
       2    H1      15.152920   15.068865   20.316069 H          1 MOL1         0.0751
       3    O1      16.521917   16.554041   20.919567 O.3        1 MOL1        -0.3740
       4    C2      16.576938   14.253327   21.789737 C.3        1 MOL1         0.1003
       5    H2      16.423563   13.219738   21.453063 H          1 MOL1         0.0783
       6    O2      15.756627   14.490382   22.943386 O.3        1 MOL1        -0.5519
       7    H3      15.969997   15.402613   23.264016 H          1 MOL1         0.3769
       8    C3      18.070358   14.420324   22.152458 C.3        1 MOL1         0.1053
       9    H4      18.211377   15.444225   22.518343 H          1 MOL1         0.0783
      10    O3      18.439550   13.485276   23.171975 O.3        1 MOL1        -0.5519
      11    H5      17.699801   13.502131   23.818919 H          1 MOL1         0.3769
      12    C4      18.970279   14.221738   20.910916 C.3        1 MOL1         0.1018
      13    H6      18.969073   13.153278   20.658510 H          1 MOL1         0.0783
      14    C5      18.479077   15.046491   19.689079 C.3        1 MOL1         0.1043
      15    H7      18.640089   16.108329   19.909790 H          1 MOL1         0.0783
      16    O4      17.061282   14.808456   19.491998 O.3        1 MOL1        -0.3740
      17    C6      19.223742   14.753895   18.362067 C.3        1 MOL1         0.0138
      18    H8      20.145506   15.349344   18.341292 H          1 MOL1         0.0794
      19    H9      18.599660   15.102957   17.528624 H          1 MOL1         0.0794
      20    O5      19.545310   13.369505   18.189154 O.3        1 MOL1        -0.5486
      21    H10     20.447478   13.239797   18.556962 H          1 MOL1         0.3769
      22    C7      15.047791   20.198559   22.115648 C.3        1 MOL1         0.2972
      23    H11     14.470045   21.052078   22.492558 H          1 MOL1         0.0751
      24    O6      16.235786   20.623388   21.417765 O.3        1 MOL1        -0.3740
      25    C8      15.463551   19.270436   23.284632 C.3        1 MOL1         0.1003
      26    H12     14.541899   18.911717   23.761260 H          1 MOL1         0.0783
      27    O7      16.265282   19.965748   24.254437 O.3        1 MOL1        -0.5519
      28    H13     16.114549   20.932234   24.116277 H          1 MOL1         0.3769
      29    C9      16.247125   18.050896   22.755573 C.3        1 MOL1         0.1053
      30    H14     17.200511   18.422479   22.365417 H          1 MOL1         0.0783
      31    O8      16.491140   17.148910   23.839097 O.3        1 MOL1        -0.5519
      32    H15     16.714143   17.734977   24.597113 H          1 MOL1         0.3769
      33    C10     15.514419   17.332519   21.594880 C.3        1 MOL1         0.1018
      34    H16     14.711696   16.709660   22.010288 H          1 MOL1         0.0783
      35    C11     14.931025   18.321096   20.544762 C.3        1 MOL1         0.1043
      36    H17     15.766708   18.720644   19.955807 H          1 MOL1         0.0783
      37    O9      14.249369   19.420138   21.200418 O.3        1 MOL1        -0.3740
      38    C12     13.949972   17.658270   19.548299 C.3        1 MOL1         0.0138
      39    H18     14.524782   17.011321   18.871984 H          1 MOL1         0.0794
      40    H19     13.490298   18.444391   18.934342 H          1 MOL1         0.0794
      41    O10     12.939197   16.889862   20.212606 O.3        1 MOL1        -0.5486
      42    H20     12.309273   16.571485   19.529491 H          1 MOL1         0.3769
      43    C13     18.429779   24.100030   20.833750 C.3        1 MOL1         0.2972
      44    H21     18.778308   25.109409   20.580556 H          1 MOL1         0.0751
      45    O11     19.522690   23.209744   21.143190 O.3        1 MOL1        -0.3740
      46    C14     17.494917   24.139048   22.068150 C.3        1 MOL1         0.1003
      47    H22     16.623889   24.751399   21.800477 H          1 MOL1         0.0783
      48    O12     18.151605   24.729679   23.200785 O.3        1 MOL1        -0.5519
      49    H23     19.087165   24.403121   23.207459 H          1 MOL1         0.3769
      50    C15     16.988657   22.717009   22.413915 C.3        1 MOL1         0.1053
      51    H24     17.848589   22.114694   22.737845 H          1 MOL1         0.0783
      52    O13     16.038051   22.813407   23.480279 O.3        1 MOL1        -0.5519
      53    H25     16.415589   23.487223   24.091108 H          1 MOL1         0.3769
      54    C16     16.358415   22.035685   21.167175 C.3        1 MOL1         0.1018
      55    H26     15.381533   22.492772   20.963752 H          1 MOL1         0.0783
      56    C17     17.255437   22.168150   19.905208 C.3        1 MOL1         0.1043
      57    H27     18.144045   21.543121   20.047086 H          1 MOL1         0.0783
      58    O14     17.676266   23.541678   19.736243 O.3        1 MOL1        -0.3740
      59    C18     16.574831   21.685825   18.600006 C.3        1 MOL1         0.0138
      60    H28     16.554975   20.587944   18.602299 H          1 MOL1         0.0794
      61    H29     17.194992   21.995680   17.748448 H          1 MOL1         0.0794
      62    O15     15.242812   22.190624   18.447581 O.3        1 MOL1        -0.5486
      63    H30     14.671568   21.711964   19.086350 H          1 MOL1         0.3769
      64    C19     23.636090   22.814354   21.033342 C.3        1 MOL1         0.2972
      65    H31     24.721331   22.935994   20.923065 H          1 MOL1         0.0751
      66    O16     23.276331   21.424556   21.193413 O.3        1 MOL1        -0.3740
      67    C20     23.096828   23.646911   22.228450 C.3        1 MOL1         0.1003
      68    H32     23.277087   24.703388   21.990205 H          1 MOL1         0.0783
      69    O17     23.766391   23.334885   23.458603 O.3        1 MOL1        -0.5519
      70    H33     23.537831   22.397045   23.678561 H          1 MOL1         0.3769
      71    C21     21.569409   23.447388   22.369707 C.3        1 MOL1         0.1053
      72    H34     21.379418   22.396753   22.627499 H          1 MOL1         0.0783
      73    O18     21.069422   24.297324   23.406545 O.3        1 MOL1        -0.5519
      74    H35     21.713890   24.209653   24.144091 H          1 MOL1         0.3769
      75    C22     20.847684   23.763893   21.036576 C.3        1 MOL1         0.1018
      76    H36     20.831857   24.854113   20.907741 H          1 MOL1         0.0783
      77    C23     21.530189   23.101657   19.806242 C.3        1 MOL1         0.1043
      78    H37     21.319763   22.024930   19.835517 H          1 MOL1         0.0783
      79    O19     22.965797   23.303940   19.852605 O.3        1 MOL1        -0.3740
      80    C24     21.003553   23.638367   18.453656 C.3        1 MOL1         0.0138
      81    H38     19.973276   23.284258   18.315330 H          1 MOL1         0.0794
      82    H39     21.608507   23.206472   17.645252 H          1 MOL1         0.0794
      83    O20     21.036584   25.069991   18.390731 O.3        1 MOL1        -0.5486
      84    H40     20.724869   25.335882   17.498225 H          1 MOL1         0.3769
      85    C25     24.713824   17.704179   22.318073 C.3        1 MOL1         0.2972
      86    H41     25.301411   16.860162   22.700664 H          1 MOL1         0.0751
      87    O21     23.596725   17.255832   21.521886 O.3        1 MOL1        -0.3740
      88    C26     24.187021   18.575410   23.489231 C.3        1 MOL1         0.1003
      89    H42     25.064165   18.943358   24.037613 H          1 MOL1         0.0783
      90    O22     23.351386   17.821457   24.384254 O.3        1 MOL1        -0.5519
      91    H43     23.696841   16.894933   24.372173 H          1 MOL1         0.3769
      92    C27     23.405817   19.794790   22.952848 C.3        1 MOL1         0.1053
      93    H44     22.505489   19.422994   22.457029 H          1 MOL1         0.0783
      94    O23     23.037116   20.627638   24.055284 O.3        1 MOL1        -0.5519
      95    H45     22.790007   19.998826   24.769394 H          1 MOL1         0.3769
      96    C28     24.217338   20.588270   21.899517 C.3        1 MOL1         0.1018
      97    H46     24.989251   21.174497   22.415409 H          1 MOL1         0.0783
      98    C29     24.877213   19.658268   20.841987 C.3        1 MOL1         0.1043
      99    H47     24.085025   19.268836   20.189158 H          1 MOL1         0.0783
     100    O24     25.543849   18.545623   21.490031 O.3        1 MOL1        -0.3740
     101    C30     25.901644   20.383889   19.936936 C.3        1 MOL1         0.0138
     102    H48     25.354744   21.055161   19.261020 H          1 MOL1         0.0794
     103    H49     26.409449   19.636014   19.313236 H          1 MOL1         0.0794
     104    O25     26.858996   21.133767   20.695416 O.3        1 MOL1        -0.5486
     105    H50     27.520257   21.495919   20.065829 H          1 MOL1         0.3769
     106    C31     21.366198   13.787745   21.028385 C.3        1 MOL1         0.2972
     107    H51     21.012299   12.770799   20.817008 H          1 MOL1         0.0751
     108    O26     20.276310   14.693470   21.287889 O.3        1 MOL1        -0.3740
     109    C32     22.266528   13.775613   22.283948 C.3        1 MOL1         0.1003
     110    H52     23.113786   13.109044   22.076179 H          1 MOL1         0.0783
     111    O27     21.538037   13.280333   23.419909 O.3        1 MOL1        -0.5519
     112    H53     20.587640   13.522471   23.287815 H          1 MOL1         0.3769
     113    C33     22.827873   15.185416   22.582197 C.3        1 MOL1         0.1053
     114    H54     21.991528   15.820528   22.896659 H          1 MOL1         0.0783
     115    O28     23.776591   15.068522   23.648474 O.3        1 MOL1        -0.5519
     116    H55     23.374537   14.417927   24.268836 H          1 MOL1         0.3769
     117    C34     23.470322   15.831567   21.321079 C.3        1 MOL1         0.1018
     118    H56     24.447324   15.366928   21.137164 H          1 MOL1         0.0783
     119    C35     22.579862   15.669926   20.057062 C.3        1 MOL1         0.1043
     120    H57     21.702214   16.318038   20.175496 H          1 MOL1         0.0783
     121    O29     22.136385   14.297746   19.921609 O.3        1 MOL1        -0.3740
     122    C36     23.280562   16.098862   18.744111 C.3        1 MOL1         0.0138
     123    H58     23.371632   17.193355   18.737145 H          1 MOL1         0.0794
     124    H59     22.637149   15.821986   17.898591 H          1 MOL1         0.0794
     125    O30     24.575284   15.505985   18.588645 O.3        1 MOL1        -0.5486
     126    H60     25.183128   15.954267   19.214992 H          1 MOL1         0.3769
     127    C1      19.993309   19.097038   19.817340 C.3        1 MOL1        -0.2224
     128    H1      19.276052   18.328224   19.504263 H          1 MOL1         0.1052
     129    H2      19.846530   19.974285   19.174699 H          1 MOL1         0.1052
     130    H3      21.008174   18.718284   19.639508 H          1 MOL1         0.1052
     131    C2      19.795150   19.468823   21.301631 C.3        1 MOL1        -0.1209
     132    H4      18.781835   19.860700   21.453851 H          1 MOL1         0.1041
     133    H5      20.485160   20.282524   21.566543 H          1 MOL1         0.1041
     134    C3      20.024710   18.261937   22.236893 C.3        1 MOL1        -0.1274
     135    H6      19.321055   17.456204   21.993148 H          1 MOL1         0.1041
     136    H7      21.029765   17.857001   22.074205 H          1 MOL1         0.1041
     137    C4      19.859628   18.670447   23.715488 C.3        1 MOL1         0.0313
     138    H8      18.799576   18.804200   23.948269 H          1 MOL1         0.1015
     139    H9      20.363505   19.627275   23.876943 H          1 MOL1         0.1015
     140    N1      20.449952   17.692055   24.716799 N.4        1 MOL1        -0.4809
     141    H10     20.347603   18.069996   25.670321 H          1 MOL1         0.3726
     142    H11     21.476455   17.620575   24.573563 H          1 MOL1         0.3726
     143    C5      19.790158   16.321134   24.628146 C.3        1 MOL1        -0.0677
     144    H12     19.964188   15.898814   23.636541 H          1 MOL1         0.1026
     145    H13     20.224863   15.664576   25.384972 H          1 MOL1         0.1026
     146    H14     18.716972   16.424588   24.801666 H          1 MOL1         0.1026
@<TRIPOS>BOND
    1     1     2    1
    2     1     3    1
    3     1     4    1
    4     4     5    1
    5     4     6    1
    6     6     7    1
    7     4     8    1
    8     8     9    1
    9     8    10    1
   10    10    11    1
   11     8    12    1
   12    12    13    1
   13    12    14    1
   14    14    15    1
   15     1    16    1
   16    14    16    1
   17    14    17    1
   18    17    18    1
   19    17    19    1
   20    17    20    1
   21    20    21    1
   22    22    23    1
   23    22    24    1
   24    22    25    1
   25    25    26    1
   26    25    27    1
   27    27    28    1
   28    25    29    1
   29    29    30    1
   30    29    31    1
   31    31    32    1
   32     3    33    1
   33    29    33    1
   34    33    34    1
   35    33    35    1
   36    35    36    1
   37    22    37    1
   38    35    37    1
   39    35    38    1
   40    38    39    1
   41    38    40    1
   42    38    41    1
   43    41    42    1
   44    43    44    1
   45    43    45    1
   46    43    46    1
   47    46    47    1
   48    46    48    1
   49    48    49    1
   50    46    50    1
   51    50    51    1
   52    50    52    1
   53    52    53    1
   54    24    54    1
   55    50    54    1
   56    54    55    1
   57    54    56    1
   58    56    57    1
   59    43    58    1
   60    56    58    1
   61    56    59    1
   62    59    60    1
   63    59    61    1
   64    59    62    1
   65    62    63    1
   66    64    65    1
   67    64    66    1
   68    64    67    1
   69    67    68    1
   70    67    69    1
   71    69    70    1
   72    67    71    1
   73    71    72    1
   74    71    73    1
   75    73    74    1
   76    45    75    1
   77    71    75    1
   78    75    76    1
   79    75    77    1
   80    77    78    1
   81    64    79    1
   82    77    79    1
   83    77    80    1
   84    80    81    1
   85    80    82    1
   86    80    83    1
   87    83    84    1
   88    85    86    1
   89    85    87    1
   90    85    88    1
   91    88    89    1
   92    88    90    1
   93    90    91    1
   94    88    92    1
   95    92    93    1
   96    92    94    1
   97    94    95    1
   98    66    96    1
   99    92    96    1
  100    96    97    1
  101    96    98    1
  102    98    99    1
  103    85   100    1
  104    98   100    1
  105    98   101    1
  106   101   102    1
  107   101   103    1
  108   101   104    1
  109   104   105    1
  110   106   107    1
  111    12   108    1
  112   106   108    1
  113   106   109    1
  114   109   110    1
  115   109   111    1
  116   111   112    1
  117   109   113    1
  118   113   114    1
  119   113   115    1
  120   115   116    1
  121    87   117    1
  122   113   117    1
  123   117   118    1
  124   117   119    1
  125   119   120    1
  126   106   121    1
  127   119   121    1
  128   119   122    1
  129   122   123    1
  130   122   124    1
  131   122   125    1
  132   125   126    1
  133   127   128    1
  134   127   129    1
  135   127   130    1
  136   127   131    1
  137   131   132    1
  138   131   133    1
  139   131   134    1
  140   134   135    1
  141   134   136    1
  142   134   137    1
  143   137   138    1
  144   137   139    1
  145   137   140    1
  146   140   141    1
  147   140   142    1
  148   140   143    1
  149   143   144    1
  150   143   145    1
  151   143   146    1
@<TRIPOS>SUBSTRUCTURE
       1 MOL1            1 RESIDUE      1      MOL     
       2 MOL1          146 RESIDUE      1      MOL     
@<SCITEGIC>MOL_PROPERTY
feprocess Rank
SciTegic.value.IntegerValue
1

@<SCITEGIC>MOL_PROPERTY
Conf_Id
SciTegic.value.IntegerValue
401

@<SCITEGIC>MOL_PROPERTY
Probability
SciTegic.value.DoubleValue
49.72

@<SCITEGIC>MOL_PROPERTY
G
SciTegic.value.DoubleValue
585.796

@<SCITEGIC>MOL_PROPERTY
E
SciTegic.value.DoubleValue
393.016

@<SCITEGIC>MOL_PROPERTY
-TS
SciTegic.value.DoubleValue
192.780

@<SCITEGIC>MOL_PROPERTY
U+W
SciTegic.value.DoubleValue
264.245

@<SCITEGIC>MOL_PROPERTY
U
SciTegic.value.DoubleValue
350.295

@<SCITEGIC>MOL_PROPERTY
W
SciTegic.value.DoubleValue
-86.050

@<SCITEGIC>MOL_PROPERTY
W(PB)
SciTegic.value.DoubleValue
-92.112

@<SCITEGIC>MOL_PROPERTY
W(SA)
SciTegic.value.DoubleValue
6.062

@<SCITEGIC>MOL_PROPERTY
Valence
SciTegic.value.DoubleValue
145.465

@<SCITEGIC>MOL_PROPERTY
Coulomb
SciTegic.value.DoubleValue
228.788

@<SCITEGIC>MOL_PROPERTY
VdW
SciTegic.value.DoubleValue
-23.958

@<SCITEGIC>MOL_PROPERTY
VdW6
SciTegic.value.DoubleValue
-177.184

@<SCITEGIC>MOL_PROPERTY
VdW12
SciTegic.value.DoubleValue
153.226

@<SCITEGIC>MOL_PROPERTY
Bond
SciTegic.value.DoubleValue
4.647

@<SCITEGIC>MOL_PROPERTY
Angle
SciTegic.value.DoubleValue
11.910

@<SCITEGIC>MOL_PROPERTY
Pdih
SciTegic.value.DoubleValue
128.908

@<SCITEGIC>MOL_PROPERTY
Idih
SciTegic.value.DoubleValue
0.000

@<SCITEGIC>MOL_PROPERTY
Tether
SciTegic.value.DoubleValue
0.000

