@<TRIPOS>MOLECULE
guest-s21_vm2.mol2 : vm2 ligand conformer 1
          22          21           1
SMALL
USER_CHARGES
 
@<TRIPOS>ATOM
       1    C1      19.831429   19.134099   26.187471 C.2        1 MOL1         0.6145
       2    O1      20.058938   20.237313   26.643094 O.co2      1 MOL1        -0.6735
       3    O2      20.174277   18.099917   26.725386 O.co2      1 MOL1        -0.6735
       4    C2      19.094611   19.043078   24.855919 C.3        1 MOL1        -0.1985
       5    H1      18.397769   19.887590   24.793684 H          1 MOL1         0.0740
       6    H2      18.493092   18.126122   24.861338 H          1 MOL1         0.0740
       7    C3      20.050596   19.048016   23.637675 C.3        1 MOL1        -0.1882
       8    H3      20.654610   19.965879   23.654107 H          1 MOL1         0.0742
       9    H4      20.749825   18.204455   23.721684 H          1 MOL1         0.0742
      10    C4      19.280792   18.955188   22.302510 C.3        1 MOL1        -0.1880
      11    H5      18.581852   19.799120   22.222289 H          1 MOL1         0.0742
      12    H6      18.677120   18.037259   22.289845 H          1 MOL1         0.0742
      13    C5      20.236311   18.960365   21.089973 C.3        1 MOL1        -0.1880
      14    H7      20.840263   19.878088   21.102354 H          1 MOL1         0.0742
      15    H8      20.935353   18.116505   21.169769 H          1 MOL1         0.0742
      16    C6      19.467681   18.867801   19.755167 C.3        1 MOL1        -0.1856
      17    H9      18.768742   19.711507   19.670782 H          1 MOL1         0.0742
      18    H10     18.863781   17.949926   19.738206 H          1 MOL1         0.0742
      19    C7      20.425367   18.873223   18.546803 C.3        1 MOL1        -0.2871
      20    H11     21.020254   19.795644   18.521227 H          1 MOL1         0.0754
      21    H12     19.862428   18.806838   17.606704 H          1 MOL1         0.0754
      22    H13     21.116059   18.020841   18.589192 H          1 MOL1         0.0754
@<TRIPOS>BOND
    1     1     2    1
    2     1     3    2
    3     1     4    1
    4     4     5    1
    5     4     6    1
    6     4     7    1
    7     7     8    1
    8     7     9    1
    9     7    10    1
   10    10    11    1
   11    10    12    1
   12    10    13    1
   13    13    14    1
   14    13    15    1
   15    13    16    1
   16    16    17    1
   17    16    18    1
   18    16    19    1
   19    19    20    1
   20    19    21    1
   21    19    22    1
@<TRIPOS>SUBSTRUCTURE
       1 MOL1            1 RESIDUE      1      MOL     
@<SCITEGIC>MOL_PROPERTY
VM2 Rank
SciTegic.value.IntegerValue
1

@<SCITEGIC>MOL_PROPERTY
Conf_Id
SciTegic.value.IntegerValue
202

@<SCITEGIC>MOL_PROPERTY
Probability
SciTegic.value.DoubleValue
32.02

@<SCITEGIC>MOL_PROPERTY
Sum Probability
SciTegic.value.DoubleValue
32.02

@<SCITEGIC>MOL_PROPERTY
Delta G
SciTegic.value.DoubleValue
0.000

@<SCITEGIC>MOL_PROPERTY
G
SciTegic.value.DoubleValue
-16.999

@<SCITEGIC>MOL_PROPERTY
E
SciTegic.value.DoubleValue
-36.566

@<SCITEGIC>MOL_PROPERTY
-TS
SciTegic.value.DoubleValue
19.568

@<SCITEGIC>MOL_PROPERTY
U+W
SciTegic.value.DoubleValue
-54.451

@<SCITEGIC>MOL_PROPERTY
U
SciTegic.value.DoubleValue
5.779

@<SCITEGIC>MOL_PROPERTY
W
SciTegic.value.DoubleValue
-60.229

@<SCITEGIC>MOL_PROPERTY
W(PB)
SciTegic.value.DoubleValue
-62.557

@<SCITEGIC>MOL_PROPERTY
W(SA)
SciTegic.value.DoubleValue
2.328

@<SCITEGIC>MOL_PROPERTY
Valence
SciTegic.value.DoubleValue
7.101

@<SCITEGIC>MOL_PROPERTY
Coulomb
SciTegic.value.DoubleValue
-2.079

@<SCITEGIC>MOL_PROPERTY
VdW
SciTegic.value.DoubleValue
0.757

@<SCITEGIC>MOL_PROPERTY
VdW6
SciTegic.value.DoubleValue
-6.496

@<SCITEGIC>MOL_PROPERTY
VdW12
SciTegic.value.DoubleValue
7.253

@<SCITEGIC>MOL_PROPERTY
Bond
SciTegic.value.DoubleValue
0.100

@<SCITEGIC>MOL_PROPERTY
Angle
SciTegic.value.DoubleValue
2.262

@<SCITEGIC>MOL_PROPERTY
Pdih
SciTegic.value.DoubleValue
4.738

@<SCITEGIC>MOL_PROPERTY
Idih
SciTegic.value.DoubleValue
0.001

@<SCITEGIC>MOL_PROPERTY
Tether
SciTegic.value.DoubleValue
0.000

@<TRIPOS>MOLECULE
guest-s21_vm2.mol2 : vm2 ligand conformer 2
          22          21           1
SMALL
USER_CHARGES
 
@<TRIPOS>ATOM
       1    C1      19.729023   18.854904   25.965542 C.2        1 MOL1         0.6145
       2    O1      19.213077   19.643010   26.733156 O.co2      1 MOL1        -0.6735
       3    O2      20.523159   18.002110   26.309917 O.co2      1 MOL1        -0.6735
       4    C2      19.378274   18.956985   24.485431 C.3        1 MOL1        -0.1985
       5    H1      18.343390   19.310421   24.404652 H          1 MOL1         0.0740
       6    H2      19.410717   17.945597   24.064927 H          1 MOL1         0.0740
       7    C3      20.329187   19.903480   23.707589 C.3        1 MOL1        -0.1882
       8    H3      20.342926   20.880448   24.210370 H          1 MOL1         0.0742
       9    H4      21.355619   19.514564   23.757700 H          1 MOL1         0.0742
      10    C4      19.920603   20.112188   22.229992 C.3        1 MOL1        -0.1880
      11    H5      20.573372   20.880392   21.793253 H          1 MOL1         0.0742
      12    H6      18.897781   20.510558   22.183869 H          1 MOL1         0.0742
      13    C5      20.017906   18.825918   21.377634 C.3        1 MOL1        -0.1880
      14    H7      21.026779   18.400646   21.468321 H          1 MOL1         0.0742
      15    H8      19.316143   18.071309   21.755835 H          1 MOL1         0.0742
      16    C6      19.707713   19.102342   19.891447 C.3        1 MOL1        -0.1856
      17    H9      20.410167   19.850514   19.498725 H          1 MOL1         0.0742
      18    H10     18.699868   19.529877   19.796964 H          1 MOL1         0.0742
      19    C7      19.801058   17.818063   19.043292 C.3        1 MOL1        -0.2871
      20    H11     20.808871   17.385606   19.095123 H          1 MOL1         0.0754
      21    H12     19.578180   18.032933   17.990093 H          1 MOL1         0.0754
      22    H13     19.085443   17.062853   19.393927 H          1 MOL1         0.0754
@<TRIPOS>BOND
    1     1     2    1
    2     1     3    2
    3     1     4    1
    4     4     5    1
    5     4     6    1
    6     4     7    1
    7     7     8    1
    8     7     9    1
    9     7    10    1
   10    10    11    1
   11    10    12    1
   12    10    13    1
   13    13    14    1
   14    13    15    1
   15    13    16    1
   16    16    17    1
   17    16    18    1
   18    16    19    1
   19    19    20    1
   20    19    21    1
   21    19    22    1
@<TRIPOS>SUBSTRUCTURE
       1 MOL1            1 RESIDUE      1      MOL     
@<SCITEGIC>MOL_PROPERTY
VM2 Rank
SciTegic.value.IntegerValue
2

@<SCITEGIC>MOL_PROPERTY
Conf_Id
SciTegic.value.IntegerValue
313

@<SCITEGIC>MOL_PROPERTY
Probability
SciTegic.value.DoubleValue
8.24

@<SCITEGIC>MOL_PROPERTY
Sum Probability
SciTegic.value.DoubleValue
40.27

@<SCITEGIC>MOL_PROPERTY
Delta G
SciTegic.value.DoubleValue
0.809

@<SCITEGIC>MOL_PROPERTY
G
SciTegic.value.DoubleValue
-16.190

@<SCITEGIC>MOL_PROPERTY
E
SciTegic.value.DoubleValue
-35.867

@<SCITEGIC>MOL_PROPERTY
-TS
SciTegic.value.DoubleValue
19.677

@<SCITEGIC>MOL_PROPERTY
U+W
SciTegic.value.DoubleValue
-53.752

@<SCITEGIC>MOL_PROPERTY
U
SciTegic.value.DoubleValue
6.782

@<SCITEGIC>MOL_PROPERTY
W
SciTegic.value.DoubleValue
-60.534

@<SCITEGIC>MOL_PROPERTY
W(PB)
SciTegic.value.DoubleValue
-62.847

@<SCITEGIC>MOL_PROPERTY
W(SA)
SciTegic.value.DoubleValue
2.313

@<SCITEGIC>MOL_PROPERTY
Valence
SciTegic.value.DoubleValue
7.621

@<SCITEGIC>MOL_PROPERTY
Coulomb
SciTegic.value.DoubleValue
-1.711

@<SCITEGIC>MOL_PROPERTY
VdW
SciTegic.value.DoubleValue
0.872

@<SCITEGIC>MOL_PROPERTY
VdW6
SciTegic.value.DoubleValue
-7.188

@<SCITEGIC>MOL_PROPERTY
VdW12
SciTegic.value.DoubleValue
8.060

@<SCITEGIC>MOL_PROPERTY
Bond
SciTegic.value.DoubleValue
0.142

@<SCITEGIC>MOL_PROPERTY
Angle
SciTegic.value.DoubleValue
2.504

@<SCITEGIC>MOL_PROPERTY
Pdih
SciTegic.value.DoubleValue
4.974

@<SCITEGIC>MOL_PROPERTY
Idih
SciTegic.value.DoubleValue
0.001

@<SCITEGIC>MOL_PROPERTY
Tether
SciTegic.value.DoubleValue
0.000

@<TRIPOS>MOLECULE
guest-s21_vm2.mol2 : vm2 ligand conformer 3
          22          21           1
SMALL
USER_CHARGES
 
@<TRIPOS>ATOM
       1    C1      20.133428   19.130305   25.955960 C.2        1 MOL1         0.6145
       2    O1      19.613884   19.915973   26.723646 O.co2      1 MOL1        -0.6735
       3    O2      20.647829   18.086927   26.307041 O.co2      1 MOL1        -0.6735
       4    C2      20.118873   19.461339   24.467881 C.3        1 MOL1        -0.1985
       5    H1      21.034095   19.051123   24.026433 H          1 MOL1         0.0740
       6    H2      20.166114   20.551692   24.361462 H          1 MOL1         0.0740
       7    C3      18.865451   18.906732   23.742297 C.3        1 MOL1        -0.1882
       8    H3      18.853285   17.810557   23.817019 H          1 MOL1         0.0742
       9    H4      17.968018   19.263209   24.266685 H          1 MOL1         0.0742
      10    C4      18.772969   19.330718   22.257210 C.3        1 MOL1        -0.1880
      11    H5      18.775330   20.427089   22.186795 H          1 MOL1         0.0742
      12    H6      17.805423   18.995747   21.858922 H          1 MOL1         0.0742
      13    C5      19.906002   18.749648   21.380243 C.3        1 MOL1        -0.1880
      14    H7      20.876960   19.133726   21.718866 H          1 MOL1         0.0742
      15    H8      19.935074   17.657349   21.494014 H          1 MOL1         0.0742
      16    C6      19.714406   19.106981   19.891285 C.3        1 MOL1        -0.1856
      17    H9      19.682760   20.199071   19.773808 H          1 MOL1         0.0742
      18    H10     18.748701   18.719604   19.538034 H          1 MOL1         0.0742
      19    C7      20.847158   18.530378   19.018437 C.3        1 MOL1        -0.2871
      20    H11     21.822860   18.926509   19.329045 H          1 MOL1         0.0754
      21    H12     20.694840   18.793408   17.963597 H          1 MOL1         0.0754
      22    H13     20.882032   17.435577   19.093193 H          1 MOL1         0.0754
@<TRIPOS>BOND
    1     1     2    1
    2     1     3    2
    3     1     4    1
    4     4     5    1
    5     4     6    1
    6     4     7    1
    7     7     8    1
    8     7     9    1
    9     7    10    1
   10    10    11    1
   11    10    12    1
   12    10    13    1
   13    13    14    1
   14    13    15    1
   15    13    16    1
   16    16    17    1
   17    16    18    1
   18    16    19    1
   19    19    20    1
   20    19    21    1
   21    19    22    1
@<TRIPOS>SUBSTRUCTURE
       1 MOL1            1 RESIDUE      1      MOL     
@<SCITEGIC>MOL_PROPERTY
VM2 Rank
SciTegic.value.IntegerValue
3

@<SCITEGIC>MOL_PROPERTY
Conf_Id
SciTegic.value.IntegerValue
324

@<SCITEGIC>MOL_PROPERTY
Probability
SciTegic.value.DoubleValue
7.40

@<SCITEGIC>MOL_PROPERTY
Sum Probability
SciTegic.value.DoubleValue
47.67

@<SCITEGIC>MOL_PROPERTY
Delta G
SciTegic.value.DoubleValue
0.873

@<SCITEGIC>MOL_PROPERTY
G
SciTegic.value.DoubleValue
-16.125

@<SCITEGIC>MOL_PROPERTY
E
SciTegic.value.DoubleValue
-35.803

@<SCITEGIC>MOL_PROPERTY
-TS
SciTegic.value.DoubleValue
19.678

@<SCITEGIC>MOL_PROPERTY
U+W
SciTegic.value.DoubleValue
-53.688

@<SCITEGIC>MOL_PROPERTY
U
SciTegic.value.DoubleValue
6.782

@<SCITEGIC>MOL_PROPERTY
W
SciTegic.value.DoubleValue
-60.470

@<SCITEGIC>MOL_PROPERTY
W(PB)
SciTegic.value.DoubleValue
-62.789

@<SCITEGIC>MOL_PROPERTY
W(SA)
SciTegic.value.DoubleValue
2.320

@<SCITEGIC>MOL_PROPERTY
Valence
SciTegic.value.DoubleValue
7.621

@<SCITEGIC>MOL_PROPERTY
Coulomb
SciTegic.value.DoubleValue
-1.711

@<SCITEGIC>MOL_PROPERTY
VdW
SciTegic.value.DoubleValue
0.872

@<SCITEGIC>MOL_PROPERTY
VdW6
SciTegic.value.DoubleValue
-7.188

@<SCITEGIC>MOL_PROPERTY
VdW12
SciTegic.value.DoubleValue
8.060

@<SCITEGIC>MOL_PROPERTY
Bond
SciTegic.value.DoubleValue
0.142

@<SCITEGIC>MOL_PROPERTY
Angle
SciTegic.value.DoubleValue
2.504

@<SCITEGIC>MOL_PROPERTY
Pdih
SciTegic.value.DoubleValue
4.974

@<SCITEGIC>MOL_PROPERTY
Idih
SciTegic.value.DoubleValue
0.001

@<SCITEGIC>MOL_PROPERTY
Tether
SciTegic.value.DoubleValue
0.000

@<TRIPOS>MOLECULE
guest-s21_vm2.mol2 : vm2 ligand conformer 4
          22          21           1
SMALL
USER_CHARGES
 
@<TRIPOS>ATOM
       1    C1      19.996192   19.032875   25.987429 C.2        1 MOL1         0.6145
       2    O1      20.322656   20.080203   26.509920 O.co2      1 MOL1        -0.6735
       3    O2      20.420588   17.947755   26.332184 O.co2      1 MOL1        -0.6735
       4    C2      19.015455   19.085063   24.821342 C.3        1 MOL1        -0.1985
       5    H1      18.331573   19.925781   24.989015 H          1 MOL1         0.0740
       6    H2      18.413650   18.168494   24.840904 H          1 MOL1         0.0740
       7    C3      19.719023   19.232656   23.449663 C.3        1 MOL1        -0.1882
       8    H3      20.324165   20.149775   23.449319 H          1 MOL1         0.0742
       9    H4      20.411745   18.391663   23.314254 H          1 MOL1         0.0742
      10    C4      18.702031   19.278202   22.285738 C.3        1 MOL1        -0.1880
      11    H5      17.973113   20.076938   22.479801 H          1 MOL1         0.0742
      12    H6      18.132866   18.339048   22.253648 H          1 MOL1         0.0742
      13    C5      19.354644   19.535424   20.906791 C.3        1 MOL1        -0.1880
      14    H7      18.556609   19.677055   20.165165 H          1 MOL1         0.0742
      15    H8      19.920660   20.476502   20.937260 H          1 MOL1         0.0742
      16    C6      20.277011   18.387697   20.437481 C.3        1 MOL1        -0.1856
      17    H9      19.725811   17.437442   20.457458 H          1 MOL1         0.0742
      18    H10     21.126788   18.280089   21.124256 H          1 MOL1         0.0742
      19    C7      20.812400   18.639126   19.013451 C.3        1 MOL1        -0.2871
      20    H11     21.467752   17.817641   18.696046 H          1 MOL1         0.0754
      21    H12     21.391722   19.570768   18.970864 H          1 MOL1         0.0754
      22    H13     19.988974   18.713865   18.291135 H          1 MOL1         0.0754
@<TRIPOS>BOND
    1     1     2    1
    2     1     3    2
    3     1     4    1
    4     4     5    1
    5     4     6    1
    6     4     7    1
    7     7     8    1
    8     7     9    1
    9     7    10    1
   10    10    11    1
   11    10    12    1
   12    10    13    1
   13    13    14    1
   14    13    15    1
   15    13    16    1
   16    16    17    1
   17    16    18    1
   18    16    19    1
   19    19    20    1
   20    19    21    1
   21    19    22    1
@<TRIPOS>SUBSTRUCTURE
       1 MOL1            1 RESIDUE      1      MOL     
@<SCITEGIC>MOL_PROPERTY
VM2 Rank
SciTegic.value.IntegerValue
4

@<SCITEGIC>MOL_PROPERTY
Conf_Id
SciTegic.value.IntegerValue
567

@<SCITEGIC>MOL_PROPERTY
Probability
SciTegic.value.DoubleValue
7.32

@<SCITEGIC>MOL_PROPERTY
Sum Probability
SciTegic.value.DoubleValue
54.98

@<SCITEGIC>MOL_PROPERTY
Delta G
SciTegic.value.DoubleValue
0.880

@<SCITEGIC>MOL_PROPERTY
G
SciTegic.value.DoubleValue
-16.118

@<SCITEGIC>MOL_PROPERTY
E
SciTegic.value.DoubleValue
-35.792

@<SCITEGIC>MOL_PROPERTY
-TS
SciTegic.value.DoubleValue
19.674

@<SCITEGIC>MOL_PROPERTY
U+W
SciTegic.value.DoubleValue
-53.677

@<SCITEGIC>MOL_PROPERTY
U
SciTegic.value.DoubleValue
7.026

@<SCITEGIC>MOL_PROPERTY
W
SciTegic.value.DoubleValue
-60.703

@<SCITEGIC>MOL_PROPERTY
W(PB)
SciTegic.value.DoubleValue
-63.007

@<SCITEGIC>MOL_PROPERTY
W(SA)
SciTegic.value.DoubleValue
2.304

@<SCITEGIC>MOL_PROPERTY
Valence
SciTegic.value.DoubleValue
7.638

@<SCITEGIC>MOL_PROPERTY
Coulomb
SciTegic.value.DoubleValue
-1.488

@<SCITEGIC>MOL_PROPERTY
VdW
SciTegic.value.DoubleValue
0.877

@<SCITEGIC>MOL_PROPERTY
VdW6
SciTegic.value.DoubleValue
-7.165

@<SCITEGIC>MOL_PROPERTY
VdW12
SciTegic.value.DoubleValue
8.042

@<SCITEGIC>MOL_PROPERTY
Bond
SciTegic.value.DoubleValue
0.134

@<SCITEGIC>MOL_PROPERTY
Angle
SciTegic.value.DoubleValue
2.513

@<SCITEGIC>MOL_PROPERTY
Pdih
SciTegic.value.DoubleValue
4.990

@<SCITEGIC>MOL_PROPERTY
Idih
SciTegic.value.DoubleValue
0.001

@<SCITEGIC>MOL_PROPERTY
Tether
SciTegic.value.DoubleValue
0.000

@<TRIPOS>MOLECULE
guest-s21_vm2.mol2 : vm2 ligand conformer 5
          22          21           1
SMALL
USER_CHARGES
 
@<TRIPOS>ATOM
       1    C1      19.600310   19.027534   25.980247 C.2        1 MOL1         0.6145
       2    O1      19.227594   20.065372   26.490588 O.co2      1 MOL1        -0.6735
       3    O2      19.193055   17.931204   26.309879 O.co2      1 MOL1        -0.6735
       4    C2      20.620678   19.106738   24.850245 C.3        1 MOL1        -0.1985
       5    H1      21.245894   18.206728   24.891920 H          1 MOL1         0.0740
       6    H2      21.275142   19.965519   25.042051 H          1 MOL1         0.0740
       7    C3      19.963275   19.235975   23.454033 C.3        1 MOL1        -0.1882
       8    H3      19.298900   18.376615   23.294112 H          1 MOL1         0.0742
       9    H4      19.333937   20.136379   23.431477 H          1 MOL1         0.0742
      10    C4      21.019951   19.309661   22.327502 C.3        1 MOL1        -0.1880
      11    H5      21.615170   18.386308   22.316404 H          1 MOL1         0.0742
      12    H6      21.719467   20.127779   22.547323 H          1 MOL1         0.0742
      13    C5      20.410724   19.549756   20.925803 C.3        1 MOL1        -0.1880
      14    H7      19.818630   20.475102   20.935394 H          1 MOL1         0.0742
      15    H8      21.230831   19.713373   20.213357 H          1 MOL1         0.0742
      16    C6      19.537387   18.377631   20.424109 C.3        1 MOL1        -0.1856
      17    H9      18.666654   18.246625   21.079868 H          1 MOL1         0.0742
      18    H10     20.113128   17.442695   20.464390 H          1 MOL1         0.0742
      19    C7      19.047025   18.615130   18.981593 C.3        1 MOL1        -0.2871
      20    H11     18.444433   19.530657   18.917732 H          1 MOL1         0.0754
      21    H12     18.426181   17.776254   18.641140 H          1 MOL1         0.0754
      22    H13     19.893609   18.712673   18.289396 H          1 MOL1         0.0754
@<TRIPOS>BOND
    1     1     2    1
    2     1     3    2
    3     1     4    1
    4     4     5    1
    5     4     6    1
    6     4     7    1
    7     7     8    1
    8     7     9    1
    9     7    10    1
   10    10    11    1
   11    10    12    1
   12    10    13    1
   13    13    14    1
   14    13    15    1
   15    13    16    1
   16    16    17    1
   17    16    18    1
   18    16    19    1
   19    19    20    1
   20    19    21    1
   21    19    22    1
@<TRIPOS>SUBSTRUCTURE
       1 MOL1            1 RESIDUE      1      MOL     
@<SCITEGIC>MOL_PROPERTY
VM2 Rank
SciTegic.value.IntegerValue
5

@<SCITEGIC>MOL_PROPERTY
Conf_Id
SciTegic.value.IntegerValue
523

@<SCITEGIC>MOL_PROPERTY
Probability
SciTegic.value.DoubleValue
7.08

@<SCITEGIC>MOL_PROPERTY
Sum Probability
SciTegic.value.DoubleValue
62.07

@<SCITEGIC>MOL_PROPERTY
Delta G
SciTegic.value.DoubleValue
0.899

@<SCITEGIC>MOL_PROPERTY
G
SciTegic.value.DoubleValue
-16.099

@<SCITEGIC>MOL_PROPERTY
E
SciTegic.value.DoubleValue
-35.773

@<SCITEGIC>MOL_PROPERTY
-TS
SciTegic.value.DoubleValue
19.674

@<SCITEGIC>MOL_PROPERTY
U+W
SciTegic.value.DoubleValue
-53.658

@<SCITEGIC>MOL_PROPERTY
U
SciTegic.value.DoubleValue
7.026

@<SCITEGIC>MOL_PROPERTY
W
SciTegic.value.DoubleValue
-60.684

@<SCITEGIC>MOL_PROPERTY
W(PB)
SciTegic.value.DoubleValue
-62.976

@<SCITEGIC>MOL_PROPERTY
W(SA)
SciTegic.value.DoubleValue
2.292

@<SCITEGIC>MOL_PROPERTY
Valence
SciTegic.value.DoubleValue
7.638

@<SCITEGIC>MOL_PROPERTY
Coulomb
SciTegic.value.DoubleValue
-1.489

@<SCITEGIC>MOL_PROPERTY
VdW
SciTegic.value.DoubleValue
0.877

@<SCITEGIC>MOL_PROPERTY
VdW6
SciTegic.value.DoubleValue
-7.165

@<SCITEGIC>MOL_PROPERTY
VdW12
SciTegic.value.DoubleValue
8.042

@<SCITEGIC>MOL_PROPERTY
Bond
SciTegic.value.DoubleValue
0.134

@<SCITEGIC>MOL_PROPERTY
Angle
SciTegic.value.DoubleValue
2.513

@<SCITEGIC>MOL_PROPERTY
Pdih
SciTegic.value.DoubleValue
4.990

@<SCITEGIC>MOL_PROPERTY
Idih
SciTegic.value.DoubleValue
0.001

@<SCITEGIC>MOL_PROPERTY
Tether
SciTegic.value.DoubleValue
0.000

@<TRIPOS>MOLECULE
guest-s21_vm2.mol2 : vm2 ligand conformer 6
          22          21           1
SMALL
USER_CHARGES
 
@<TRIPOS>ATOM
       1    C1      19.732861   19.223301   26.094720 C.2        1 MOL1         0.6145
       2    O1      20.138838   20.291455   26.507855 O.co2      1 MOL1        -0.6735
       3    O2      19.790580   18.189696   26.730950 O.co2      1 MOL1        -0.6735
       4    C2      19.137870   19.172981   24.691986 C.3        1 MOL1        -0.1985
       5    H1      18.646297   20.133448   24.495728 H          1 MOL1         0.0740
       6    H2      18.358583   18.401482   24.679823 H          1 MOL1         0.0740
       7    C3      20.195946   18.881045   23.599556 C.3        1 MOL1        -0.1882
       8    H3      20.975241   19.655083   23.632931 H          1 MOL1         0.0742
       9    H4      20.687986   17.923129   23.818202 H          1 MOL1         0.0742
      10    C4      19.568671   18.835106   22.189320 C.3        1 MOL1        -0.1880
      11    H5      19.074037   19.793459   21.984223 H          1 MOL1         0.0742
      12    H6      18.791699   18.059086   22.158311 H          1 MOL1         0.0742
      13    C5      20.629524   18.547264   21.102121 C.3        1 MOL1        -0.1880
      14    H7      21.380798   19.348820   21.096426 H          1 MOL1         0.0742
      15    H8      21.163406   17.622297   21.359686 H          1 MOL1         0.0742
      16    C6      20.030651   18.389910   19.685116 C.3        1 MOL1        -0.1856
      17    H9      19.283220   17.584518   19.685401 H          1 MOL1         0.0742
      18    H10     20.827953   18.072889   18.998789 H          1 MOL1         0.0742
      19    C7      19.395059   19.688242   19.142376 C.3        1 MOL1        -0.2871
      20    H11     20.115821   20.516071   19.160715 H          1 MOL1         0.0754
      21    H12     18.517733   19.981903   19.732094 H          1 MOL1         0.0754
      22    H13     19.066031   19.549601   18.104378 H          1 MOL1         0.0754
@<TRIPOS>BOND
    1     1     2    1
    2     1     3    2
    3     1     4    1
    4     4     5    1
    5     4     6    1
    6     4     7    1
    7     7     8    1
    8     7     9    1
    9     7    10    1
   10    10    11    1
   11    10    12    1
   12    10    13    1
   13    13    14    1
   14    13    15    1
   15    13    16    1
   16    16    17    1
   17    16    18    1
   18    16    19    1
   19    19    20    1
   20    19    21    1
   21    19    22    1
@<TRIPOS>SUBSTRUCTURE
       1 MOL1            1 RESIDUE      1      MOL     
@<SCITEGIC>MOL_PROPERTY
VM2 Rank
SciTegic.value.IntegerValue
6

@<SCITEGIC>MOL_PROPERTY
Conf_Id
SciTegic.value.IntegerValue
38

@<SCITEGIC>MOL_PROPERTY
Probability
SciTegic.value.DoubleValue
6.37

@<SCITEGIC>MOL_PROPERTY
Sum Probability
SciTegic.value.DoubleValue
68.44

@<SCITEGIC>MOL_PROPERTY
Delta G
SciTegic.value.DoubleValue
0.962

@<SCITEGIC>MOL_PROPERTY
G
SciTegic.value.DoubleValue
-16.036

@<SCITEGIC>MOL_PROPERTY
E
SciTegic.value.DoubleValue
-35.714

@<SCITEGIC>MOL_PROPERTY
-TS
SciTegic.value.DoubleValue
19.677

@<SCITEGIC>MOL_PROPERTY
U+W
SciTegic.value.DoubleValue
-53.598

@<SCITEGIC>MOL_PROPERTY
U
SciTegic.value.DoubleValue
6.751

@<SCITEGIC>MOL_PROPERTY
W
SciTegic.value.DoubleValue
-60.350

@<SCITEGIC>MOL_PROPERTY
W(PB)
SciTegic.value.DoubleValue
-62.659

@<SCITEGIC>MOL_PROPERTY
W(SA)
SciTegic.value.DoubleValue
2.309

@<SCITEGIC>MOL_PROPERTY
Valence
SciTegic.value.DoubleValue
7.602

@<SCITEGIC>MOL_PROPERTY
Coulomb
SciTegic.value.DoubleValue
-1.744

@<SCITEGIC>MOL_PROPERTY
VdW
SciTegic.value.DoubleValue
0.893

@<SCITEGIC>MOL_PROPERTY
VdW6
SciTegic.value.DoubleValue
-7.110

@<SCITEGIC>MOL_PROPERTY
VdW12
SciTegic.value.DoubleValue
8.004

@<SCITEGIC>MOL_PROPERTY
Bond
SciTegic.value.DoubleValue
0.131

@<SCITEGIC>MOL_PROPERTY
Angle
SciTegic.value.DoubleValue
2.489

@<SCITEGIC>MOL_PROPERTY
Pdih
SciTegic.value.DoubleValue
4.981

@<SCITEGIC>MOL_PROPERTY
Idih
SciTegic.value.DoubleValue
0.001

@<SCITEGIC>MOL_PROPERTY
Tether
SciTegic.value.DoubleValue
0.000

@<TRIPOS>MOLECULE
guest-s21_vm2.mol2 : vm2 ligand conformer 7
          22          21           1
SMALL
USER_CHARGES
 
@<TRIPOS>ATOM
       1    C1      19.743412   19.027948   26.102211 C.2        1 MOL1         0.6145
       2    O1      19.687075   20.107328   26.657391 O.co2      1 MOL1        -0.6735
       3    O2      20.260154   18.044317   26.594042 O.co2      1 MOL1        -0.6735
       4    C2      19.152236   18.906739   24.702200 C.3        1 MOL1        -0.1985
       5    H1      18.294581   19.586792   24.634375 H          1 MOL1         0.0740
       6    H2      18.767584   17.886824   24.581895 H          1 MOL1         0.0740
       7    C3      20.177281   19.226452   23.586305 C.3        1 MOL1        -0.1882
       8    H3      20.562541   20.245617   23.729096 H          1 MOL1         0.0742
       9    H4      21.035154   18.545535   23.675504 H          1 MOL1         0.0742
      10    C4      19.554529   19.096783   22.179282 C.3        1 MOL1        -0.1880
      11    H5      18.698699   19.780043   22.092298 H          1 MOL1         0.0742
      12    H6      19.166741   18.077921   22.050027 H          1 MOL1         0.0742
      13    C5      20.582731   19.413223   21.068909 C.3        1 MOL1        -0.1880
      14    H7      21.012905   20.407228   21.252866 H          1 MOL1         0.0742
      15    H8      21.415918   18.699090   21.121364 H          1 MOL1         0.0742
      16    C6      19.976268   19.396518   19.646505 C.3        1 MOL1        -0.1856
      17    H9      20.737659   19.744133   18.934688 H          1 MOL1         0.0742
      18    H10     19.146520   20.114464   19.588350 H          1 MOL1         0.0742
      19    C7      19.486313   17.999692   19.207154 C.3        1 MOL1        -0.2871
      20    H11     19.148557   18.022432   18.162969 H          1 MOL1         0.0754
      21    H12     18.643259   17.659240   19.821204 H          1 MOL1         0.0754
      22    H13     20.291886   17.258058   19.285688 H          1 MOL1         0.0754
@<TRIPOS>BOND
    1     1     2    1
    2     1     3    2
    3     1     4    1
    4     4     5    1
    5     4     6    1
    6     4     7    1
    7     7     8    1
    8     7     9    1
    9     7    10    1
   10    10    11    1
   11    10    12    1
   12    10    13    1
   13    13    14    1
   14    13    15    1
   15    13    16    1
   16    16    17    1
   17    16    18    1
   18    16    19    1
   19    19    20    1
   20    19    21    1
   21    19    22    1
@<TRIPOS>SUBSTRUCTURE
       1 MOL1            1 RESIDUE      1      MOL     
@<SCITEGIC>MOL_PROPERTY
VM2 Rank
SciTegic.value.IntegerValue
7

@<SCITEGIC>MOL_PROPERTY
Conf_Id
SciTegic.value.IntegerValue
539

@<SCITEGIC>MOL_PROPERTY
Probability
SciTegic.value.DoubleValue
6.02

@<SCITEGIC>MOL_PROPERTY
Sum Probability
SciTegic.value.DoubleValue
74.46

@<SCITEGIC>MOL_PROPERTY
Delta G
SciTegic.value.DoubleValue
0.996

@<SCITEGIC>MOL_PROPERTY
G
SciTegic.value.DoubleValue
-16.002

@<SCITEGIC>MOL_PROPERTY
E
SciTegic.value.DoubleValue
-35.680

@<SCITEGIC>MOL_PROPERTY
-TS
SciTegic.value.DoubleValue
19.677

@<SCITEGIC>MOL_PROPERTY
U+W
SciTegic.value.DoubleValue
-53.565

@<SCITEGIC>MOL_PROPERTY
U
SciTegic.value.DoubleValue
6.751

@<SCITEGIC>MOL_PROPERTY
W
SciTegic.value.DoubleValue
-60.316

@<SCITEGIC>MOL_PROPERTY
W(PB)
SciTegic.value.DoubleValue
-62.637

@<SCITEGIC>MOL_PROPERTY
W(SA)
SciTegic.value.DoubleValue
2.321

@<SCITEGIC>MOL_PROPERTY
Valence
SciTegic.value.DoubleValue
7.602

@<SCITEGIC>MOL_PROPERTY
Coulomb
SciTegic.value.DoubleValue
-1.744

@<SCITEGIC>MOL_PROPERTY
VdW
SciTegic.value.DoubleValue
0.893

@<SCITEGIC>MOL_PROPERTY
VdW6
SciTegic.value.DoubleValue
-7.110

@<SCITEGIC>MOL_PROPERTY
VdW12
SciTegic.value.DoubleValue
8.004

@<SCITEGIC>MOL_PROPERTY
Bond
SciTegic.value.DoubleValue
0.131

@<SCITEGIC>MOL_PROPERTY
Angle
SciTegic.value.DoubleValue
2.489

@<SCITEGIC>MOL_PROPERTY
Pdih
SciTegic.value.DoubleValue
4.981

@<SCITEGIC>MOL_PROPERTY
Idih
SciTegic.value.DoubleValue
0.001

@<SCITEGIC>MOL_PROPERTY
Tether
SciTegic.value.DoubleValue
0.000

@<TRIPOS>MOLECULE
guest-s21_vm2.mol2 : vm2 ligand conformer 8
          22          21           1
SMALL
USER_CHARGES
 
@<TRIPOS>ATOM
       1    C1      19.995954   19.018072   25.802307 C.2        1 MOL1         0.6145
       2    O1      20.594654   19.981761   26.237927 O.co2      1 MOL1        -0.6735
       3    O2      20.375692   17.871957   25.940191 O.co2      1 MOL1        -0.6735
       4    C2      18.686316   19.261703   25.057577 C.3        1 MOL1        -0.1985
       5    H1      18.102123   19.977972   25.647253 H          1 MOL1         0.0740
       6    H2      18.115016   18.325675   25.038336 H          1 MOL1         0.0740
       7    C3      18.871521   19.805774   23.617202 C.3        1 MOL1        -0.1882
       8    H3      17.888682   20.080501   23.210883 H          1 MOL1         0.0742
       9    H4      19.468958   20.727523   23.650354 H          1 MOL1         0.0742
      10    C4      19.543095   18.780350   22.676417 C.3        1 MOL1        -0.1880
      11    H5      18.949231   17.856248   22.657057 H          1 MOL1         0.0742
      12    H6      20.534704   18.513371   23.067367 H          1 MOL1         0.0742
      13    C5      19.688711   19.330801   21.241409 C.3        1 MOL1        -0.1880
      14    H7      18.698058   19.595832   20.847171 H          1 MOL1         0.0742
      15    H8      20.282694   20.254861   21.261600 H          1 MOL1         0.0742
      16    C6      20.360002   18.307624   20.301452 C.3        1 MOL1        -0.1856
      17    H9      19.767754   17.382350   20.277516 H          1 MOL1         0.0742
      18    H10     21.352202   18.041569   20.691654 H          1 MOL1         0.0742
      19    C7      20.504054   18.860958   18.869519 C.3        1 MOL1        -0.2871
      20    H11     19.522713   19.106150   18.442617 H          1 MOL1         0.0754
      21    H12     20.982993   18.120985   18.215193 H          1 MOL1         0.0754
      22    H13     21.119086   19.770377   18.859907 H          1 MOL1         0.0754
@<TRIPOS>BOND
    1     1     2    1
    2     1     3    2
    3     1     4    1
    4     4     5    1
    5     4     6    1
    6     4     7    1
    7     7     8    1
    8     7     9    1
    9     7    10    1
   10    10    11    1
   11    10    12    1
   12    10    13    1
   13    13    14    1
   14    13    15    1
   15    13    16    1
   16    16    17    1
   17    16    18    1
   18    16    19    1
   19    19    20    1
   20    19    21    1
   21    19    22    1
@<TRIPOS>SUBSTRUCTURE
       1 MOL1            1 RESIDUE      1      MOL     
@<SCITEGIC>MOL_PROPERTY
VM2 Rank
SciTegic.value.IntegerValue
8

@<SCITEGIC>MOL_PROPERTY
Conf_Id
SciTegic.value.IntegerValue
134

@<SCITEGIC>MOL_PROPERTY
Probability
SciTegic.value.DoubleValue
2.84

@<SCITEGIC>MOL_PROPERTY
Sum Probability
SciTegic.value.DoubleValue
77.31

@<SCITEGIC>MOL_PROPERTY
Delta G
SciTegic.value.DoubleValue
1.444

@<SCITEGIC>MOL_PROPERTY
G
SciTegic.value.DoubleValue
-15.555

@<SCITEGIC>MOL_PROPERTY
E
SciTegic.value.DoubleValue
-35.435

@<SCITEGIC>MOL_PROPERTY
-TS
SciTegic.value.DoubleValue
19.880

@<SCITEGIC>MOL_PROPERTY
U+W
SciTegic.value.DoubleValue
-53.320

@<SCITEGIC>MOL_PROPERTY
U
SciTegic.value.DoubleValue
7.937

@<SCITEGIC>MOL_PROPERTY
W
SciTegic.value.DoubleValue
-61.257

@<SCITEGIC>MOL_PROPERTY
W(PB)
SciTegic.value.DoubleValue
-63.561

@<SCITEGIC>MOL_PROPERTY
W(SA)
SciTegic.value.DoubleValue
2.304

@<SCITEGIC>MOL_PROPERTY
Valence
SciTegic.value.DoubleValue
7.358

@<SCITEGIC>MOL_PROPERTY
Coulomb
SciTegic.value.DoubleValue
-0.021

@<SCITEGIC>MOL_PROPERTY
VdW
SciTegic.value.DoubleValue
0.600

@<SCITEGIC>MOL_PROPERTY
VdW6
SciTegic.value.DoubleValue
-7.363

@<SCITEGIC>MOL_PROPERTY
VdW12
SciTegic.value.DoubleValue
7.964

@<SCITEGIC>MOL_PROPERTY
Bond
SciTegic.value.DoubleValue
0.121

@<SCITEGIC>MOL_PROPERTY
Angle
SciTegic.value.DoubleValue
2.425

@<SCITEGIC>MOL_PROPERTY
Pdih
SciTegic.value.DoubleValue
4.811

@<SCITEGIC>MOL_PROPERTY
Idih
SciTegic.value.DoubleValue
0.001

@<SCITEGIC>MOL_PROPERTY
Tether
SciTegic.value.DoubleValue
0.000

@<TRIPOS>MOLECULE
guest-s21_vm2.mol2 : vm2 ligand conformer 9
          22          21           1
SMALL
USER_CHARGES
 
@<TRIPOS>ATOM
       1    C1      19.540678   19.147641   25.784869 C.2        1 MOL1         0.6145
       2    O1      19.509241   20.290596   26.196649 O.co2      1 MOL1        -0.6735
       3    O2      18.606503   18.375384   25.872785 O.co2      1 MOL1        -0.6735
       4    C2      20.831459   18.651261   25.139408 C.3        1 MOL1        -0.1985
       5    H1      20.824915   17.554512   25.141693 H          1 MOL1         0.0740
       6    H2      21.661695   18.964993   25.783086 H          1 MOL1         0.0740
       7    C3      21.062125   19.182431   23.700785 C.3        1 MOL1        -0.1882
       8    H3      21.038056   20.281060   23.710247 H          1 MOL1         0.0742
       9    H4      22.068345   18.891085   23.370361 H          1 MOL1         0.0742
      10    C4      20.019970   18.644752   22.694605 C.3        1 MOL1        -0.1880
      11    H5      19.011495   18.947136   23.009170 H          1 MOL1         0.0742
      12    H6      20.038678   17.546277   22.698723 H          1 MOL1         0.0742
      13    C5      20.287268   19.160438   21.264196 C.3        1 MOL1        -0.1880
      14    H7      20.268420   20.258957   21.260896 H          1 MOL1         0.0742
      15    H8      21.294123   18.856792   20.946231 H          1 MOL1         0.0742
      16    C6      19.246423   18.624573   20.258944 C.3        1 MOL1        -0.1856
      17    H9      18.238009   18.928094   20.572757 H          1 MOL1         0.0742
      18    H10     19.263412   17.525858   20.258378 H          1 MOL1         0.0742
      19    C7      19.516333   19.141923   18.831759 C.3        1 MOL1        -0.2871
      20    H11     19.474047   20.238463   18.796944 H          1 MOL1         0.0754
      21    H12     18.767331   18.751444   18.130613 H          1 MOL1         0.0754
      22    H13     20.507160   18.825643   18.480155 H          1 MOL1         0.0754
@<TRIPOS>BOND
    1     1     2    1
    2     1     3    2
    3     1     4    1
    4     4     5    1
    5     4     6    1
    6     4     7    1
    7     7     8    1
    8     7     9    1
    9     7    10    1
   10    10    11    1
   11    10    12    1
   12    10    13    1
   13    13    14    1
   14    13    15    1
   15    13    16    1
   16    16    17    1
   17    16    18    1
   18    16    19    1
   19    19    20    1
   20    19    21    1
   21    19    22    1
@<TRIPOS>SUBSTRUCTURE
       1 MOL1            1 RESIDUE      1      MOL     
@<SCITEGIC>MOL_PROPERTY
VM2 Rank
SciTegic.value.IntegerValue
9

@<SCITEGIC>MOL_PROPERTY
Conf_Id
SciTegic.value.IntegerValue
135

@<SCITEGIC>MOL_PROPERTY
Probability
SciTegic.value.DoubleValue
2.70

@<SCITEGIC>MOL_PROPERTY
Sum Probability
SciTegic.value.DoubleValue
80.01

@<SCITEGIC>MOL_PROPERTY
Delta G
SciTegic.value.DoubleValue
1.474

@<SCITEGIC>MOL_PROPERTY
G
SciTegic.value.DoubleValue
-15.525

@<SCITEGIC>MOL_PROPERTY
E
SciTegic.value.DoubleValue
-35.405

@<SCITEGIC>MOL_PROPERTY
-TS
SciTegic.value.DoubleValue
19.880

@<SCITEGIC>MOL_PROPERTY
U+W
SciTegic.value.DoubleValue
-53.290

@<SCITEGIC>MOL_PROPERTY
U
SciTegic.value.DoubleValue
7.937

@<SCITEGIC>MOL_PROPERTY
W
SciTegic.value.DoubleValue
-61.226

@<SCITEGIC>MOL_PROPERTY
W(PB)
SciTegic.value.DoubleValue
-63.524

@<SCITEGIC>MOL_PROPERTY
W(SA)
SciTegic.value.DoubleValue
2.297

@<SCITEGIC>MOL_PROPERTY
Valence
SciTegic.value.DoubleValue
7.358

@<SCITEGIC>MOL_PROPERTY
Coulomb
SciTegic.value.DoubleValue
-0.021

@<SCITEGIC>MOL_PROPERTY
VdW
SciTegic.value.DoubleValue
0.601

@<SCITEGIC>MOL_PROPERTY
VdW6
SciTegic.value.DoubleValue
-7.363

@<SCITEGIC>MOL_PROPERTY
VdW12
SciTegic.value.DoubleValue
7.964

@<SCITEGIC>MOL_PROPERTY
Bond
SciTegic.value.DoubleValue
0.121

@<SCITEGIC>MOL_PROPERTY
Angle
SciTegic.value.DoubleValue
2.425

@<SCITEGIC>MOL_PROPERTY
Pdih
SciTegic.value.DoubleValue
4.811

@<SCITEGIC>MOL_PROPERTY
Idih
SciTegic.value.DoubleValue
0.000

@<SCITEGIC>MOL_PROPERTY
Tether
SciTegic.value.DoubleValue
0.000

@<TRIPOS>MOLECULE
guest-s21_vm2.mol2 : vm2 ligand conformer 10
          22          21           1
SMALL
USER_CHARGES
 
@<TRIPOS>ATOM
       1    C1      19.582843   19.107429   25.923167 C.2        1 MOL1         0.6145
       2    O1      19.606331   20.242086   26.357376 O.co2      1 MOL1        -0.6735
       3    O2      19.702455   18.118330   26.618824 O.co2      1 MOL1        -0.6735
       4    C2      19.416936   18.914650   24.420029 C.3        1 MOL1        -0.1985
       5    H1      18.780755   19.725617   24.047873 H          1 MOL1         0.0740
       6    H2      18.876459   17.974926   24.255004 H          1 MOL1         0.0740
       7    C3      20.771197   18.892415   23.664741 C.3        1 MOL1        -0.1882
       8    H3      21.283859   19.854445   23.802417 H          1 MOL1         0.0742
       9    H4      21.417069   18.128925   24.120071 H          1 MOL1         0.0742
      10    C4      20.629447   18.586284   22.154771 C.3        1 MOL1        -0.1880
      11    H5      20.134779   17.614280   22.028659 H          1 MOL1         0.0742
      12    H6      21.634370   18.484011   21.723102 H          1 MOL1         0.0742
      13    C5      19.855731   19.679675   21.378381 C.3        1 MOL1        -0.1880
      14    H7      18.810797   19.711978   21.713393 H          1 MOL1         0.0742
      15    H8      20.290313   20.660926   21.612913 H          1 MOL1         0.0742
      16    C6      19.889620   19.480240   19.845329 C.3        1 MOL1        -0.1856
      17    H9      20.931199   19.463392   19.495900 H          1 MOL1         0.0742
      18    H10     19.415679   20.347896   19.365997 H          1 MOL1         0.0742
      19    C7      19.165440   18.197889   19.381382 C.3        1 MOL1        -0.2871
      20    H11     19.673026   17.296813   19.747766 H          1 MOL1         0.0754
      21    H12     19.143396   18.144582   18.285223 H          1 MOL1         0.0754
      22    H13     18.128634   18.180062   19.741715 H          1 MOL1         0.0754
@<TRIPOS>BOND
    1     1     2    1
    2     1     3    2
    3     1     4    1
    4     4     5    1
    5     4     6    1
    6     4     7    1
    7     7     8    1
    8     7     9    1
    9     7    10    1
   10    10    11    1
   11    10    12    1
   12    10    13    1
   13    13    14    1
   14    13    15    1
   15    13    16    1
   16    16    17    1
   17    16    18    1
   18    16    19    1
   19    19    20    1
   20    19    21    1
   21    19    22    1
@<TRIPOS>SUBSTRUCTURE
       1 MOL1            1 RESIDUE      1      MOL     
@<SCITEGIC>MOL_PROPERTY
VM2 Rank
SciTegic.value.IntegerValue
10

@<SCITEGIC>MOL_PROPERTY
Conf_Id
SciTegic.value.IntegerValue
52

@<SCITEGIC>MOL_PROPERTY
Probability
SciTegic.value.DoubleValue
1.62

@<SCITEGIC>MOL_PROPERTY
Sum Probability
SciTegic.value.DoubleValue
81.63

@<SCITEGIC>MOL_PROPERTY
Delta G
SciTegic.value.DoubleValue
1.779

@<SCITEGIC>MOL_PROPERTY
G
SciTegic.value.DoubleValue
-15.219

@<SCITEGIC>MOL_PROPERTY
E
SciTegic.value.DoubleValue
-35.030

@<SCITEGIC>MOL_PROPERTY
-TS
SciTegic.value.DoubleValue
19.810

@<SCITEGIC>MOL_PROPERTY
U+W
SciTegic.value.DoubleValue
-52.914

@<SCITEGIC>MOL_PROPERTY
U
SciTegic.value.DoubleValue
7.600

@<SCITEGIC>MOL_PROPERTY
W
SciTegic.value.DoubleValue
-60.514

@<SCITEGIC>MOL_PROPERTY
W(PB)
SciTegic.value.DoubleValue
-62.798

@<SCITEGIC>MOL_PROPERTY
W(SA)
SciTegic.value.DoubleValue
2.284

@<SCITEGIC>MOL_PROPERTY
Valence
SciTegic.value.DoubleValue
8.094

@<SCITEGIC>MOL_PROPERTY
Coulomb
SciTegic.value.DoubleValue
-1.473

@<SCITEGIC>MOL_PROPERTY
VdW
SciTegic.value.DoubleValue
0.979

@<SCITEGIC>MOL_PROPERTY
VdW6
SciTegic.value.DoubleValue
-7.827

@<SCITEGIC>MOL_PROPERTY
VdW12
SciTegic.value.DoubleValue
8.806

@<SCITEGIC>MOL_PROPERTY
Bond
SciTegic.value.DoubleValue
0.173

@<SCITEGIC>MOL_PROPERTY
Angle
SciTegic.value.DoubleValue
2.687

@<SCITEGIC>MOL_PROPERTY
Pdih
SciTegic.value.DoubleValue
5.233

@<SCITEGIC>MOL_PROPERTY
Idih
SciTegic.value.DoubleValue
0.001

@<SCITEGIC>MOL_PROPERTY
Tether
SciTegic.value.DoubleValue
0.000

@<TRIPOS>MOLECULE
guest-s21_vm2.mol2 : vm2 ligand conformer 11
          22          21           1
SMALL
USER_CHARGES
 
@<TRIPOS>ATOM
       1    C1      19.729019   19.210567   25.988249 C.2        1 MOL1         0.6145
       2    O1      20.055066   20.327862   26.337361 O.co2      1 MOL1        -0.6735
       3    O2      19.720701   18.249196   26.731391 O.co2      1 MOL1        -0.6735
       4    C2      19.330063   18.998499   24.532176 C.3        1 MOL1        -0.1985
       5    H1      18.841106   19.915326   24.184594 H          1 MOL1         0.0740
       6    H2      18.582329   18.197169   24.497820 H          1 MOL1         0.0740
       7    C3      20.537230   18.643096   23.625503 C.3        1 MOL1        -0.1882
       8    H3      21.256722   19.473526   23.628989 H          1 MOL1         0.0742
       9    H4      21.059468   17.779065   24.059283 H          1 MOL1         0.0742
      10    C4      20.140695   18.300514   22.169441 C.3        1 MOL1        -0.1880
      11    H5      19.415318   17.475593   22.170009 H          1 MOL1         0.0742
      12    H6      21.034683   17.928696   21.652853 H          1 MOL1         0.0742
      13    C5      19.560578   19.506204   21.389833 C.3        1 MOL1        -0.1880
      14    H7      18.664620   19.876962   21.903523 H          1 MOL1         0.0742
      15    H8      20.285227   20.331784   21.391086 H          1 MOL1         0.0742
      16    C6      19.168825   19.164453   19.933178 C.3        1 MOL1        -0.1856
      17    H9      18.644311   20.026794   19.499017 H          1 MOL1         0.0742
      18    H10     18.452787   18.331061   19.927007 H          1 MOL1         0.0742
      19    C7      20.377822   18.818609   19.036869 C.3        1 MOL1        -0.2871
      20    H11     21.123653   19.623922   19.055086 H          1 MOL1         0.0754
      21    H12     20.056359   18.679629   17.996551 H          1 MOL1         0.0754
      22    H13     20.864838   17.890150   19.359669 H          1 MOL1         0.0754
@<TRIPOS>BOND
    1     1     2    1
    2     1     3    2
    3     1     4    1
    4     4     5    1
    5     4     6    1
    6     4     7    1
    7     7     8    1
    8     7     9    1
    9     7    10    1
   10    10    11    1
   11    10    12    1
   12    10    13    1
   13    13    14    1
   14    13    15    1
   15    13    16    1
   16    16    17    1
   17    16    18    1
   18    16    19    1
   19    19    20    1
   20    19    21    1
   21    19    22    1
@<TRIPOS>SUBSTRUCTURE
       1 MOL1            1 RESIDUE      1      MOL     
@<SCITEGIC>MOL_PROPERTY
VM2 Rank
SciTegic.value.IntegerValue
11

@<SCITEGIC>MOL_PROPERTY
Conf_Id
SciTegic.value.IntegerValue
278

@<SCITEGIC>MOL_PROPERTY
Probability
SciTegic.value.DoubleValue
1.54

@<SCITEGIC>MOL_PROPERTY
Sum Probability
SciTegic.value.DoubleValue
83.17

@<SCITEGIC>MOL_PROPERTY
Delta G
SciTegic.value.DoubleValue
1.807

@<SCITEGIC>MOL_PROPERTY
G
SciTegic.value.DoubleValue
-15.191

@<SCITEGIC>MOL_PROPERTY
E
SciTegic.value.DoubleValue
-34.926

@<SCITEGIC>MOL_PROPERTY
-TS
SciTegic.value.DoubleValue
19.735

@<SCITEGIC>MOL_PROPERTY
U+W
SciTegic.value.DoubleValue
-52.811

@<SCITEGIC>MOL_PROPERTY
U
SciTegic.value.DoubleValue
7.689

@<SCITEGIC>MOL_PROPERTY
W
SciTegic.value.DoubleValue
-60.500

@<SCITEGIC>MOL_PROPERTY
W(PB)
SciTegic.value.DoubleValue
-62.768

@<SCITEGIC>MOL_PROPERTY
W(SA)
SciTegic.value.DoubleValue
2.268

@<SCITEGIC>MOL_PROPERTY
Valence
SciTegic.value.DoubleValue
8.197

@<SCITEGIC>MOL_PROPERTY
Coulomb
SciTegic.value.DoubleValue
-1.561

@<SCITEGIC>MOL_PROPERTY
VdW
SciTegic.value.DoubleValue
1.053

@<SCITEGIC>MOL_PROPERTY
VdW6
SciTegic.value.DoubleValue
-7.737

@<SCITEGIC>MOL_PROPERTY
VdW12
SciTegic.value.DoubleValue
8.790

@<SCITEGIC>MOL_PROPERTY
Bond
SciTegic.value.DoubleValue
0.181

@<SCITEGIC>MOL_PROPERTY
Angle
SciTegic.value.DoubleValue
2.780

@<SCITEGIC>MOL_PROPERTY
Pdih
SciTegic.value.DoubleValue
5.235

@<SCITEGIC>MOL_PROPERTY
Idih
SciTegic.value.DoubleValue
0.001

@<SCITEGIC>MOL_PROPERTY
Tether
SciTegic.value.DoubleValue
0.000

@<TRIPOS>MOLECULE
guest-s21_vm2.mol2 : vm2 ligand conformer 12
          22          21           1
SMALL
USER_CHARGES
 
@<TRIPOS>ATOM
       1    C1      19.825382   19.116825   26.207004 C.2        1 MOL1         0.6145
       2    O1      20.531005   20.106745   26.230583 O.co2      1 MOL1        -0.6735
       3    O2      19.408574   18.575173   27.211398 O.co2      1 MOL1        -0.6735
       4    C2      19.426679   18.500740   24.864990 C.3        1 MOL1        -0.1985
       5    H1      18.331176   18.481130   24.826790 H          1 MOL1         0.0740
       6    H2      19.766348   17.458354   24.869936 H          1 MOL1         0.0740
       7    C3      19.982170   19.227342   23.611241 C.3        1 MOL1        -0.1882
       8    H3      19.643317   20.272640   23.615732 H          1 MOL1         0.0742
       9    H4      21.079789   19.248779   23.658813 H          1 MOL1         0.0742
      10    C4      19.532167   18.540952   22.303236 C.3        1 MOL1        -0.1880
      11    H5      18.434592   18.520707   22.257947 H          1 MOL1         0.0742
      12    H6      19.871924   17.496112   22.301114 H          1 MOL1         0.0742
      13    C5      20.085888   19.265231   21.057395 C.3        1 MOL1        -0.1880
      14    H7      19.746433   20.310169   21.059105 H          1 MOL1         0.0742
      15    H8      21.183475   19.285696   21.102228 H          1 MOL1         0.0742
      16    C6      19.636531   18.579881   19.749926 C.3        1 MOL1        -0.1856
      17    H9      18.538979   18.559385   19.700567 H          1 MOL1         0.0742
      18    H10     19.976037   17.534811   19.743729 H          1 MOL1         0.0742
      19    C7      20.191605   19.306112   18.508226 C.3        1 MOL1        -0.2871
      20    H11     19.841651   20.346137   18.472333 H          1 MOL1         0.0754
      21    H12     19.862535   18.805865   17.588141 H          1 MOL1         0.0754
      22    H13     21.289463   19.313826   18.515783 H          1 MOL1         0.0754
@<TRIPOS>BOND
    1     1     2    1
    2     1     3    2
    3     1     4    1
    4     4     5    1
    5     4     6    1
    6     4     7    1
    7     7     8    1
    8     7     9    1
    9     7    10    1
   10    10    11    1
   11    10    12    1
   12    10    13    1
   13    13    14    1
   14    13    15    1
   15    13    16    1
   16    16    17    1
   17    16    18    1
   18    16    19    1
   19    19    20    1
   20    19    21    1
   21    19    22    1
@<TRIPOS>SUBSTRUCTURE
       1 MOL1            1 RESIDUE      1      MOL     
@<SCITEGIC>MOL_PROPERTY
VM2 Rank
SciTegic.value.IntegerValue
12

@<SCITEGIC>MOL_PROPERTY
Conf_Id
SciTegic.value.IntegerValue
0

@<SCITEGIC>MOL_PROPERTY
Probability
SciTegic.value.DoubleValue
1.54

@<SCITEGIC>MOL_PROPERTY
Sum Probability
SciTegic.value.DoubleValue
84.72

@<SCITEGIC>MOL_PROPERTY
Delta G
SciTegic.value.DoubleValue
1.808

@<SCITEGIC>MOL_PROPERTY
G
SciTegic.value.DoubleValue
-15.190

@<SCITEGIC>MOL_PROPERTY
E
SciTegic.value.DoubleValue
-35.274

@<SCITEGIC>MOL_PROPERTY
-TS
SciTegic.value.DoubleValue
20.084

@<SCITEGIC>MOL_PROPERTY
U+W
SciTegic.value.DoubleValue
-53.159

@<SCITEGIC>MOL_PROPERTY
U
SciTegic.value.DoubleValue
6.763

@<SCITEGIC>MOL_PROPERTY
W
SciTegic.value.DoubleValue
-59.922

@<SCITEGIC>MOL_PROPERTY
W(PB)
SciTegic.value.DoubleValue
-62.256

@<SCITEGIC>MOL_PROPERTY
W(SA)
SciTegic.value.DoubleValue
2.334

@<SCITEGIC>MOL_PROPERTY
Valence
SciTegic.value.DoubleValue
7.600

@<SCITEGIC>MOL_PROPERTY
Coulomb
SciTegic.value.DoubleValue
-2.139

@<SCITEGIC>MOL_PROPERTY
VdW
SciTegic.value.DoubleValue
1.302

@<SCITEGIC>MOL_PROPERTY
VdW6
SciTegic.value.DoubleValue
-6.786

@<SCITEGIC>MOL_PROPERTY
VdW12
SciTegic.value.DoubleValue
8.088

@<SCITEGIC>MOL_PROPERTY
Bond
SciTegic.value.DoubleValue
0.134

@<SCITEGIC>MOL_PROPERTY
Angle
SciTegic.value.DoubleValue
2.720

@<SCITEGIC>MOL_PROPERTY
Pdih
SciTegic.value.DoubleValue
4.746

@<SCITEGIC>MOL_PROPERTY
Idih
SciTegic.value.DoubleValue
0.000

@<SCITEGIC>MOL_PROPERTY
Tether
SciTegic.value.DoubleValue
0.000

@<TRIPOS>MOLECULE
guest-s21_vm2.mol2 : vm2 ligand conformer 13
          22          21           1
SMALL
USER_CHARGES
 
@<TRIPOS>ATOM
       1    C1      19.582488   19.113762   25.922895 C.2        1 MOL1         0.6145
       2    O1      19.592524   20.160130   26.540613 O.co2      1 MOL1        -0.6735
       3    O2      19.725586   18.024582   26.442268 O.co2      1 MOL1        -0.6735
       4    C2      19.403138   19.172475   24.410117 C.3        1 MOL1        -0.1985
       5    H1      18.766123   20.033787   24.176054 H          1 MOL1         0.0740
       6    H2      18.858690   18.272211   24.103536 H          1 MOL1         0.0740
       7    C3      20.750376   19.281435   23.649817 C.3        1 MOL1        -0.1882
       8    H3      21.309138   20.142087   24.042826 H          1 MOL1         0.0742
       9    H4      21.362280   18.393011   23.858514 H          1 MOL1         0.0742
      10    C4      20.582948   19.454374   22.121457 C.3        1 MOL1        -0.1880
      11    H5      21.572960   19.630120   21.679125 H          1 MOL1         0.0742
      12    H6      19.987805   20.355479   21.923453 H          1 MOL1         0.0742
      13    C5      19.933655   18.228468   21.434073 C.3        1 MOL1        -0.1880
      14    H7      20.469647   17.320072   21.741075 H          1 MOL1         0.0742
      15    H8      18.896807   18.110385   21.774900 H          1 MOL1         0.0742
      16    C6      19.952231   18.312673   19.890139 C.3        1 MOL1        -0.1856
      17    H9      19.575638   17.365280   19.480470 H          1 MOL1         0.0742
      18    H10     20.987447   18.413958   19.536104 H          1 MOL1         0.0742
      19    C7      19.097054   19.471100   19.332621 C.3        1 MOL1        -0.2871
      20    H11     18.062869   19.405595   19.694971 H          1 MOL1         0.0754
      21    H12     19.073742   19.437778   18.235699 H          1 MOL1         0.0754
      22    H13     19.504054   20.446591   19.626881 H          1 MOL1         0.0754
@<TRIPOS>BOND
    1     1     2    1
    2     1     3    2
    3     1     4    1
    4     4     5    1
    5     4     6    1
    6     4     7    1
    7     7     8    1
    8     7     9    1
    9     7    10    1
   10    10    11    1
   11    10    12    1
   12    10    13    1
   13    13    14    1
   14    13    15    1
   15    13    16    1
   16    16    17    1
   17    16    18    1
   18    16    19    1
   19    19    20    1
   20    19    21    1
   21    19    22    1
@<TRIPOS>SUBSTRUCTURE
       1 MOL1            1 RESIDUE      1      MOL     
@<SCITEGIC>MOL_PROPERTY
VM2 Rank
SciTegic.value.IntegerValue
13

@<SCITEGIC>MOL_PROPERTY
Conf_Id
SciTegic.value.IntegerValue
168

@<SCITEGIC>MOL_PROPERTY
Probability
SciTegic.value.DoubleValue
1.53

@<SCITEGIC>MOL_PROPERTY
Sum Probability
SciTegic.value.DoubleValue
86.25

@<SCITEGIC>MOL_PROPERTY
Delta G
SciTegic.value.DoubleValue
1.811

@<SCITEGIC>MOL_PROPERTY
G
SciTegic.value.DoubleValue
-15.188

@<SCITEGIC>MOL_PROPERTY
E
SciTegic.value.DoubleValue
-34.998

@<SCITEGIC>MOL_PROPERTY
-TS
SciTegic.value.DoubleValue
19.810

@<SCITEGIC>MOL_PROPERTY
U+W
SciTegic.value.DoubleValue
-52.882

@<SCITEGIC>MOL_PROPERTY
U
SciTegic.value.DoubleValue
7.600

@<SCITEGIC>MOL_PROPERTY
W
SciTegic.value.DoubleValue
-60.482

@<SCITEGIC>MOL_PROPERTY
W(PB)
SciTegic.value.DoubleValue
-62.768

@<SCITEGIC>MOL_PROPERTY
W(SA)
SciTegic.value.DoubleValue
2.286

@<SCITEGIC>MOL_PROPERTY
Valence
SciTegic.value.DoubleValue
8.094

@<SCITEGIC>MOL_PROPERTY
Coulomb
SciTegic.value.DoubleValue
-1.473

@<SCITEGIC>MOL_PROPERTY
VdW
SciTegic.value.DoubleValue
0.979

@<SCITEGIC>MOL_PROPERTY
VdW6
SciTegic.value.DoubleValue
-7.827

@<SCITEGIC>MOL_PROPERTY
VdW12
SciTegic.value.DoubleValue
8.806

@<SCITEGIC>MOL_PROPERTY
Bond
SciTegic.value.DoubleValue
0.173

@<SCITEGIC>MOL_PROPERTY
Angle
SciTegic.value.DoubleValue
2.687

@<SCITEGIC>MOL_PROPERTY
Pdih
SciTegic.value.DoubleValue
5.233

@<SCITEGIC>MOL_PROPERTY
Idih
SciTegic.value.DoubleValue
0.001

@<SCITEGIC>MOL_PROPERTY
Tether
SciTegic.value.DoubleValue
0.000

@<TRIPOS>MOLECULE
guest-s21_vm2.mol2 : vm2 ligand conformer 14
          22          21           1
SMALL
USER_CHARGES
 
@<TRIPOS>ATOM
       1    C1      19.738624   19.032038   25.995078 C.2        1 MOL1         0.6145
       2    O1      19.623884   20.040847   26.662685 O.co2      1 MOL1        -0.6735
       3    O2      20.181500   17.986222   26.427124 O.co2      1 MOL1        -0.6735
       4    C2      19.325242   19.088207   24.528706 C.3        1 MOL1        -0.1985
       5    H1      18.495950   19.799650   24.436294 H          1 MOL1         0.0740
       6    H2      18.938987   18.100328   24.254178 H          1 MOL1         0.0740
       7    C3      20.491026   19.500855   23.592608 C.3        1 MOL1        -0.1882
       8    H3      20.915715   20.446531   23.957005 H          1 MOL1         0.0742
       9    H4      21.295469   18.755148   23.656554 H          1 MOL1         0.0742
      10    C4      20.066041   19.686701   22.116272 C.3        1 MOL1        -0.1880
      11    H5      20.917131   20.111664   21.569116 H          1 MOL1         0.0742
      12    H6      19.256404   20.426714   22.056794 H          1 MOL1         0.0742
      13    C5      19.621742   18.369741   21.433459 C.3        1 MOL1        -0.1880
      14    H7      20.430697   17.629117   21.494851 H          1 MOL1         0.0742
      15    H8      18.768562   17.945432   21.977635 H          1 MOL1         0.0742
      16    C6      19.201650   18.555192   19.956558 C.3        1 MOL1        -0.1856
      17    H9      18.400392   19.304058   19.889639 H          1 MOL1         0.0742
      18    H10     18.774455   17.610928   19.591712 H          1 MOL1         0.0742
      19    C7      20.370291   18.959195   19.031510 C.3        1 MOL1        -0.2871
      20    H11     20.753560   19.956481   19.280405 H          1 MOL1         0.0754
      21    H12     20.040098   18.982966   17.984933 H          1 MOL1         0.0754
      22    H13     21.198117   18.242293   19.108189 H          1 MOL1         0.0754
@<TRIPOS>BOND
    1     1     2    1
    2     1     3    2
    3     1     4    1
    4     4     5    1
    5     4     6    1
    6     4     7    1
    7     7     8    1
    8     7     9    1
    9     7    10    1
   10    10    11    1
   11    10    12    1
   12    10    13    1
   13    13    14    1
   14    13    15    1
   15    13    16    1
   16    16    17    1
   17    16    18    1
   18    16    19    1
   19    19    20    1
   20    19    21    1
   21    19    22    1
@<TRIPOS>SUBSTRUCTURE
       1 MOL1            1 RESIDUE      1      MOL     
@<SCITEGIC>MOL_PROPERTY
VM2 Rank
SciTegic.value.IntegerValue
14

@<SCITEGIC>MOL_PROPERTY
Conf_Id
SciTegic.value.IntegerValue
469

@<SCITEGIC>MOL_PROPERTY
Probability
SciTegic.value.DoubleValue
1.47

@<SCITEGIC>MOL_PROPERTY
Sum Probability
SciTegic.value.DoubleValue
87.72

@<SCITEGIC>MOL_PROPERTY
Delta G
SciTegic.value.DoubleValue
1.837

@<SCITEGIC>MOL_PROPERTY
G
SciTegic.value.DoubleValue
-15.162

@<SCITEGIC>MOL_PROPERTY
E
SciTegic.value.DoubleValue
-34.896

@<SCITEGIC>MOL_PROPERTY
-TS
SciTegic.value.DoubleValue
19.735

@<SCITEGIC>MOL_PROPERTY
U+W
SciTegic.value.DoubleValue
-52.781

@<SCITEGIC>MOL_PROPERTY
U
SciTegic.value.DoubleValue
7.689

@<SCITEGIC>MOL_PROPERTY
W
SciTegic.value.DoubleValue
-60.471

@<SCITEGIC>MOL_PROPERTY
W(PB)
SciTegic.value.DoubleValue
-62.780

@<SCITEGIC>MOL_PROPERTY
W(SA)
SciTegic.value.DoubleValue
2.309

@<SCITEGIC>MOL_PROPERTY
Valence
SciTegic.value.DoubleValue
8.197

@<SCITEGIC>MOL_PROPERTY
Coulomb
SciTegic.value.DoubleValue
-1.561

@<SCITEGIC>MOL_PROPERTY
VdW
SciTegic.value.DoubleValue
1.053

@<SCITEGIC>MOL_PROPERTY
VdW6
SciTegic.value.DoubleValue
-7.737

@<SCITEGIC>MOL_PROPERTY
VdW12
SciTegic.value.DoubleValue
8.791

@<SCITEGIC>MOL_PROPERTY
Bond
SciTegic.value.DoubleValue
0.181

@<SCITEGIC>MOL_PROPERTY
Angle
SciTegic.value.DoubleValue
2.780

@<SCITEGIC>MOL_PROPERTY
Pdih
SciTegic.value.DoubleValue
5.235

@<SCITEGIC>MOL_PROPERTY
Idih
SciTegic.value.DoubleValue
0.001

@<SCITEGIC>MOL_PROPERTY
Tether
SciTegic.value.DoubleValue
0.000

@<TRIPOS>MOLECULE
guest-s21_vm2.mol2 : vm2 ligand conformer 15
          22          21           1
SMALL
USER_CHARGES
 
@<TRIPOS>ATOM
       1    C1      19.921995   18.759970   25.688269 C.2        1 MOL1         0.6145
       2    O1      19.500844   19.387272   26.639987 O.co2      1 MOL1        -0.6735
       3    O2      20.846359   17.974196   25.756381 O.co2      1 MOL1        -0.6735
       4    C2      19.268827   18.988216   24.329889 C.3        1 MOL1        -0.1985
       5    H1      18.211339   19.226199   24.495347 H          1 MOL1         0.0740
       6    H2      19.307862   18.042012   23.778222 H          1 MOL1         0.0740
       7    C3      19.951430   20.119568   23.518365 C.3        1 MOL1        -0.1882
       8    H3      19.977142   21.029125   24.134232 H          1 MOL1         0.0742
       9    H4      20.999563   19.853566   23.327569 H          1 MOL1         0.0742
      10    C4      19.231913   20.447049   22.185662 C.3        1 MOL1        -0.1880
      11    H5      19.760701   21.274695   21.693566 H          1 MOL1         0.0742
      12    H6      18.223943   20.822241   22.409238 H          1 MOL1         0.0742
      13    C5      19.112463   19.266118   21.189673 C.3        1 MOL1        -0.1880
      14    H7      18.490668   18.471300   21.621969 H          1 MOL1         0.0742
      15    H8      18.576407   19.619376   20.298260 H          1 MOL1         0.0742
      16    C6      20.476585   18.683891   20.756190 C.3        1 MOL1        -0.1856
      17    H9      20.995179   18.253605   21.623293 H          1 MOL1         0.0742
      18    H10     21.115582   19.487897   20.365884 H          1 MOL1         0.0742
      19    C7      20.309584   17.592721   19.679585 C.3        1 MOL1        -0.2871
      20    H11     19.826275   17.997643   18.780832 H          1 MOL1         0.0754
      21    H12     19.696635   16.762566   20.054402 H          1 MOL1         0.0754
      22    H13     21.286290   17.187085   19.385438 H          1 MOL1         0.0754
@<TRIPOS>BOND
    1     1     2    1
    2     1     3    2
    3     1     4    1
    4     4     5    1
    5     4     6    1
    6     4     7    1
    7     7     8    1
    8     7     9    1
    9     7    10    1
   10    10    11    1
   11    10    12    1
   12    10    13    1
   13    13    14    1
   14    13    15    1
   15    13    16    1
   16    16    17    1
   17    16    18    1
   18    16    19    1
   19    19    20    1
   20    19    21    1
   21    19    22    1
@<TRIPOS>SUBSTRUCTURE
       1 MOL1            1 RESIDUE      1      MOL     
@<SCITEGIC>MOL_PROPERTY
VM2 Rank
SciTegic.value.IntegerValue
15

@<SCITEGIC>MOL_PROPERTY
Conf_Id
SciTegic.value.IntegerValue
552

@<SCITEGIC>MOL_PROPERTY
Probability
SciTegic.value.DoubleValue
1.30

@<SCITEGIC>MOL_PROPERTY
Sum Probability
SciTegic.value.DoubleValue
89.02

@<SCITEGIC>MOL_PROPERTY
Delta G
SciTegic.value.DoubleValue
1.910

@<SCITEGIC>MOL_PROPERTY
G
SciTegic.value.DoubleValue
-15.088

@<SCITEGIC>MOL_PROPERTY
E
SciTegic.value.DoubleValue
-35.093

@<SCITEGIC>MOL_PROPERTY
-TS
SciTegic.value.DoubleValue
20.004

@<SCITEGIC>MOL_PROPERTY
U+W
SciTegic.value.DoubleValue
-52.977

@<SCITEGIC>MOL_PROPERTY
U
SciTegic.value.DoubleValue
8.061

@<SCITEGIC>MOL_PROPERTY
W
SciTegic.value.DoubleValue
-61.039

@<SCITEGIC>MOL_PROPERTY
W(PB)
SciTegic.value.DoubleValue
-63.309

@<SCITEGIC>MOL_PROPERTY
W(SA)
SciTegic.value.DoubleValue
2.270

@<SCITEGIC>MOL_PROPERTY
Valence
SciTegic.value.DoubleValue
8.062

@<SCITEGIC>MOL_PROPERTY
Coulomb
SciTegic.value.DoubleValue
-0.784

@<SCITEGIC>MOL_PROPERTY
VdW
SciTegic.value.DoubleValue
0.783

@<SCITEGIC>MOL_PROPERTY
VdW6
SciTegic.value.DoubleValue
-8.229

@<SCITEGIC>MOL_PROPERTY
VdW12
SciTegic.value.DoubleValue
9.011

@<SCITEGIC>MOL_PROPERTY
Bond
SciTegic.value.DoubleValue
0.182

@<SCITEGIC>MOL_PROPERTY
Angle
SciTegic.value.DoubleValue
2.910

@<SCITEGIC>MOL_PROPERTY
Pdih
SciTegic.value.DoubleValue
4.969

@<SCITEGIC>MOL_PROPERTY
Idih
SciTegic.value.DoubleValue
0.001

@<SCITEGIC>MOL_PROPERTY
Tether
SciTegic.value.DoubleValue
0.000

@<TRIPOS>MOLECULE
guest-s21_vm2.mol2 : vm2 ligand conformer 16
          22          21           1
SMALL
USER_CHARGES
 
@<TRIPOS>ATOM
       1    C1      20.185887   18.973295   25.679383 C.2        1 MOL1         0.6145
       2    O1      19.699642   19.547894   26.633345 O.co2      1 MOL1        -0.6735
       3    O2      20.763732   17.907338   25.759132 O.co2      1 MOL1        -0.6735
       4    C2      20.044126   19.614999   24.303868 C.3        1 MOL1        -0.1985
       5    H1      20.938144   19.359938   23.723491 H          1 MOL1         0.0740
       6    H2      20.039098   20.703724   24.434045 H          1 MOL1         0.0740
       7    C3      18.763211   19.159190   23.558236 C.3        1 MOL1        -0.1882
       8    H3      18.796508   18.072878   23.401517 H          1 MOL1         0.0742
       9    H4      17.894079   19.345450   24.204118 H          1 MOL1         0.0742
      10    C4      18.539438   19.887339   22.208877 C.3        1 MOL1        -0.1880
      11    H5      18.392390   20.958434   22.403535 H          1 MOL1         0.0742
      12    H6      17.600356   19.528470   21.766032 H          1 MOL1         0.0742
      13    C5      19.677899   19.723153   21.170700 C.3        1 MOL1        -0.1880
      14    H7      19.408530   20.291948   20.270325 H          1 MOL1         0.0742
      15    H8      20.601904   20.177828   21.551132 H          1 MOL1         0.0742
      16    C6      19.944350   18.253652   20.774089 C.3        1 MOL1        -0.1856
      17    H9      19.009469   17.785460   20.436634 H          1 MOL1         0.0742
      18    H10     20.291687   17.684946   21.646949 H          1 MOL1         0.0742
      19    C7      21.001715   18.152141   19.656371 C.3        1 MOL1        -0.2871
      20    H11     21.182170   17.102875   19.388984 H          1 MOL1         0.0754
      21    H12     21.956081   18.588877   19.978545 H          1 MOL1         0.0754
      22    H13     20.670504   18.679987   18.752498 H          1 MOL1         0.0754
@<TRIPOS>BOND
    1     1     2    1
    2     1     3    2
    3     1     4    1
    4     4     5    1
    5     4     6    1
    6     4     7    1
    7     7     8    1
    8     7     9    1
    9     7    10    1
   10    10    11    1
   11    10    12    1
   12    10    13    1
   13    13    14    1
   14    13    15    1
   15    13    16    1
   16    16    17    1
   17    16    18    1
   18    16    19    1
   19    19    20    1
   20    19    21    1
   21    19    22    1
@<TRIPOS>SUBSTRUCTURE
       1 MOL1            1 RESIDUE      1      MOL     
@<SCITEGIC>MOL_PROPERTY
VM2 Rank
SciTegic.value.IntegerValue
16

@<SCITEGIC>MOL_PROPERTY
Conf_Id
SciTegic.value.IntegerValue
528

@<SCITEGIC>MOL_PROPERTY
Probability
SciTegic.value.DoubleValue
1.16

@<SCITEGIC>MOL_PROPERTY
Sum Probability
SciTegic.value.DoubleValue
90.18

@<SCITEGIC>MOL_PROPERTY
Delta G
SciTegic.value.DoubleValue
1.976

@<SCITEGIC>MOL_PROPERTY
G
SciTegic.value.DoubleValue
-15.023

@<SCITEGIC>MOL_PROPERTY
E
SciTegic.value.DoubleValue
-35.027

@<SCITEGIC>MOL_PROPERTY
-TS
SciTegic.value.DoubleValue
20.004

@<SCITEGIC>MOL_PROPERTY
U+W
SciTegic.value.DoubleValue
-52.912

@<SCITEGIC>MOL_PROPERTY
U
SciTegic.value.DoubleValue
8.061

@<SCITEGIC>MOL_PROPERTY
W
SciTegic.value.DoubleValue
-60.973

@<SCITEGIC>MOL_PROPERTY
W(PB)
SciTegic.value.DoubleValue
-63.234

@<SCITEGIC>MOL_PROPERTY
W(SA)
SciTegic.value.DoubleValue
2.261

@<SCITEGIC>MOL_PROPERTY
Valence
SciTegic.value.DoubleValue
8.062

@<SCITEGIC>MOL_PROPERTY
Coulomb
SciTegic.value.DoubleValue
-0.784

@<SCITEGIC>MOL_PROPERTY
VdW
SciTegic.value.DoubleValue
0.783

@<SCITEGIC>MOL_PROPERTY
VdW6
SciTegic.value.DoubleValue
-8.228

@<SCITEGIC>MOL_PROPERTY
VdW12
SciTegic.value.DoubleValue
9.011

@<SCITEGIC>MOL_PROPERTY
Bond
SciTegic.value.DoubleValue
0.183

@<SCITEGIC>MOL_PROPERTY
Angle
SciTegic.value.DoubleValue
2.910

@<SCITEGIC>MOL_PROPERTY
Pdih
SciTegic.value.DoubleValue
4.970

@<SCITEGIC>MOL_PROPERTY
Idih
SciTegic.value.DoubleValue
0.001

@<SCITEGIC>MOL_PROPERTY
Tether
SciTegic.value.DoubleValue
0.000

@<TRIPOS>MOLECULE
guest-s21_vm2.mol2 : vm2 ligand conformer 17
          22          21           1
SMALL
USER_CHARGES
 
@<TRIPOS>ATOM
       1    C1      19.999853   18.945695   25.852245 C.2        1 MOL1         0.6145
       2    O1      20.042914   19.972440   26.500690 O.co2      1 MOL1        -0.6735
       3    O2      20.675952   17.966240   26.097274 O.co2      1 MOL1        -0.6735
       4    C2      19.058661   18.889822   24.654177 C.3        1 MOL1        -0.1985
       5    H1      18.179073   19.503326   24.883284 H          1 MOL1         0.0740
       6    H2      18.712264   17.855527   24.540667 H          1 MOL1         0.0740
       7    C3      19.723925   19.376488   23.343173 C.3        1 MOL1        -0.1882
       8    H3      20.073315   20.409830   23.474666 H          1 MOL1         0.0742
       9    H4      20.611106   18.760333   23.145527 H          1 MOL1         0.0742
      10    C4      18.750346   19.303266   22.144286 C.3        1 MOL1        -0.1880
      11    H5      17.837039   19.861248   22.391791 H          1 MOL1         0.0742
      12    H6      18.437160   18.263383   21.983236 H          1 MOL1         0.0742
      13    C5      19.337805   19.887436   20.834958 C.3        1 MOL1        -0.1880
      14    H7      18.567079   19.844123   20.053422 H          1 MOL1         0.0742
      15    H8      19.554918   20.953445   20.987301 H          1 MOL1         0.0742
      16    C6      20.617538   19.188139   20.313456 C.3        1 MOL1        -0.1856
      17    H9      21.436447   19.308869   21.034860 H          1 MOL1         0.0742
      18    H10     20.944450   19.696839   19.396179 H          1 MOL1         0.0742
      19    C7      20.413005   17.689474   20.003741 C.3        1 MOL1        -0.2871
      20    H11     19.581978   17.543117   19.301625 H          1 MOL1         0.0754
      21    H12     20.198145   17.119674   20.916569 H          1 MOL1         0.0754
      22    H13     21.317841   17.263676   19.551242 H          1 MOL1         0.0754
@<TRIPOS>BOND
    1     1     2    1
    2     1     3    2
    3     1     4    1
    4     4     5    1
    5     4     6    1
    6     4     7    1
    7     7     8    1
    8     7     9    1
    9     7    10    1
   10    10    11    1
   11    10    12    1
   12    10    13    1
   13    13    14    1
   14    13    15    1
   15    13    16    1
   16    16    17    1
   17    16    18    1
   18    16    19    1
   19    19    20    1
   20    19    21    1
   21    19    22    1
@<TRIPOS>SUBSTRUCTURE
       1 MOL1            1 RESIDUE      1      MOL     
@<SCITEGIC>MOL_PROPERTY
VM2 Rank
SciTegic.value.IntegerValue
17

@<SCITEGIC>MOL_PROPERTY
Conf_Id
SciTegic.value.IntegerValue
345

@<SCITEGIC>MOL_PROPERTY
Probability
SciTegic.value.DoubleValue
1.16

@<SCITEGIC>MOL_PROPERTY
Sum Probability
SciTegic.value.DoubleValue
91.35

@<SCITEGIC>MOL_PROPERTY
Delta G
SciTegic.value.DoubleValue
1.977

@<SCITEGIC>MOL_PROPERTY
G
SciTegic.value.DoubleValue
-15.022

@<SCITEGIC>MOL_PROPERTY
E
SciTegic.value.DoubleValue
-34.996

@<SCITEGIC>MOL_PROPERTY
-TS
SciTegic.value.DoubleValue
19.974

@<SCITEGIC>MOL_PROPERTY
U+W
SciTegic.value.DoubleValue
-52.880

@<SCITEGIC>MOL_PROPERTY
U
SciTegic.value.DoubleValue
8.104

@<SCITEGIC>MOL_PROPERTY
W
SciTegic.value.DoubleValue
-60.984

@<SCITEGIC>MOL_PROPERTY
W(PB)
SciTegic.value.DoubleValue
-63.232

@<SCITEGIC>MOL_PROPERTY
W(SA)
SciTegic.value.DoubleValue
2.248

@<SCITEGIC>MOL_PROPERTY
Valence
SciTegic.value.DoubleValue
8.053

@<SCITEGIC>MOL_PROPERTY
Coulomb
SciTegic.value.DoubleValue
-0.790

@<SCITEGIC>MOL_PROPERTY
VdW
SciTegic.value.DoubleValue
0.841

@<SCITEGIC>MOL_PROPERTY
VdW6
SciTegic.value.DoubleValue
-8.065

@<SCITEGIC>MOL_PROPERTY
VdW12
SciTegic.value.DoubleValue
8.906

@<SCITEGIC>MOL_PROPERTY
Bond
SciTegic.value.DoubleValue
0.172

@<SCITEGIC>MOL_PROPERTY
Angle
SciTegic.value.DoubleValue
2.891

@<SCITEGIC>MOL_PROPERTY
Pdih
SciTegic.value.DoubleValue
4.989

@<SCITEGIC>MOL_PROPERTY
Idih
SciTegic.value.DoubleValue
0.000

@<SCITEGIC>MOL_PROPERTY
Tether
SciTegic.value.DoubleValue
0.000

@<TRIPOS>MOLECULE
guest-s21_vm2.mol2 : vm2 ligand conformer 18
          22          21           1
SMALL
USER_CHARGES
 
@<TRIPOS>ATOM
       1    C1      19.980021   19.313340   25.838147 C.2        1 MOL1         0.6145
       2    O1      20.545399   20.375840   26.005255 O.co2      1 MOL1        -0.6735
       3    O2      20.131091   18.349479   26.562501 O.co2      1 MOL1        -0.6735
       4    C2      19.043186   19.176092   24.643227 C.3        1 MOL1        -0.1985
       5    H1      18.588083   20.155454   24.452508 H          1 MOL1         0.0740
       6    H2      18.233715   18.490892   24.922166 H          1 MOL1         0.0740
       7    C3      19.762279   18.665067   23.370471 C.3        1 MOL1        -0.1882
       8    H3      20.578892   19.356112   23.122682 H          1 MOL1         0.0742
       9    H4      20.220178   17.688348   23.579057 H          1 MOL1         0.0742
      10    C4      18.791419   18.541425   22.173523 C.3        1 MOL1        -0.1880
      11    H5      18.368980   19.526270   21.934768 H          1 MOL1         0.0742
      12    H6      17.942341   17.909097   22.466713 H          1 MOL1         0.0742
      13    C5      19.443649   17.925404   20.910264 C.3        1 MOL1        -0.1880
      14    H7      19.773406   16.903675   21.142755 H          1 MOL1         0.0742
      15    H8      18.675977   17.825789   20.130874 H          1 MOL1         0.0742
      16    C6      20.643004   18.716216   20.331594 C.3        1 MOL1        -0.1856
      17    H9      21.026496   18.176944   19.454575 H          1 MOL1         0.0742
      18    H10     21.467128   18.739677   21.056771 H          1 MOL1         0.0742
      19    C7      20.279952   20.156138   19.909019 C.3        1 MOL1        -0.2871
      20    H11     21.135746   20.640874   19.421748 H          1 MOL1         0.0754
      21    H12     20.001160   20.767641   20.776445 H          1 MOL1         0.0754
      22    H13     19.441057   20.158238   19.201030 H          1 MOL1         0.0754
@<TRIPOS>BOND
    1     1     2    1
    2     1     3    2
    3     1     4    1
    4     4     5    1
    5     4     6    1
    6     4     7    1
    7     7     8    1
    8     7     9    1
    9     7    10    1
   10    10    11    1
   11    10    12    1
   12    10    13    1
   13    13    14    1
   14    13    15    1
   15    13    16    1
   16    16    17    1
   17    16    18    1
   18    16    19    1
   19    19    20    1
   20    19    21    1
   21    19    22    1
@<TRIPOS>SUBSTRUCTURE
       1 MOL1            1 RESIDUE      1      MOL     
@<SCITEGIC>MOL_PROPERTY
VM2 Rank
SciTegic.value.IntegerValue
18

@<SCITEGIC>MOL_PROPERTY
Conf_Id
SciTegic.value.IntegerValue
379

@<SCITEGIC>MOL_PROPERTY
Probability
SciTegic.value.DoubleValue
1.11

@<SCITEGIC>MOL_PROPERTY
Sum Probability
SciTegic.value.DoubleValue
92.46

@<SCITEGIC>MOL_PROPERTY
Delta G
SciTegic.value.DoubleValue
2.004

@<SCITEGIC>MOL_PROPERTY
G
SciTegic.value.DoubleValue
-14.995

@<SCITEGIC>MOL_PROPERTY
E
SciTegic.value.DoubleValue
-34.969

@<SCITEGIC>MOL_PROPERTY
-TS
SciTegic.value.DoubleValue
19.974

@<SCITEGIC>MOL_PROPERTY
U+W
SciTegic.value.DoubleValue
-52.854

@<SCITEGIC>MOL_PROPERTY
U
SciTegic.value.DoubleValue
8.103

@<SCITEGIC>MOL_PROPERTY
W
SciTegic.value.DoubleValue
-60.957

@<SCITEGIC>MOL_PROPERTY
W(PB)
SciTegic.value.DoubleValue
-63.216

@<SCITEGIC>MOL_PROPERTY
W(SA)
SciTegic.value.DoubleValue
2.258

@<SCITEGIC>MOL_PROPERTY
Valence
SciTegic.value.DoubleValue
8.053

@<SCITEGIC>MOL_PROPERTY
Coulomb
SciTegic.value.DoubleValue
-0.790

@<SCITEGIC>MOL_PROPERTY
VdW
SciTegic.value.DoubleValue
0.841

@<SCITEGIC>MOL_PROPERTY
VdW6
SciTegic.value.DoubleValue
-8.065

@<SCITEGIC>MOL_PROPERTY
VdW12
SciTegic.value.DoubleValue
8.906

@<SCITEGIC>MOL_PROPERTY
Bond
SciTegic.value.DoubleValue
0.172

@<SCITEGIC>MOL_PROPERTY
Angle
SciTegic.value.DoubleValue
2.892

@<SCITEGIC>MOL_PROPERTY
Pdih
SciTegic.value.DoubleValue
4.988

@<SCITEGIC>MOL_PROPERTY
Idih
SciTegic.value.DoubleValue
0.000

@<SCITEGIC>MOL_PROPERTY
Tether
SciTegic.value.DoubleValue
0.000

@<TRIPOS>MOLECULE
guest-s21_vm2.mol2 : vm2 ligand conformer 19
          22          21           1
SMALL
USER_CHARGES
 
@<TRIPOS>ATOM
       1    C1      19.597685   19.273506   25.679114 C.2        1 MOL1         0.6145
       2    O1      19.420300   20.467045   25.823720 O.co2      1 MOL1        -0.6735
       3    O2      18.809466   18.426672   26.051216 O.co2      1 MOL1        -0.6735
       4    C2      20.891763   18.814458   25.012979 C.3        1 MOL1        -0.1985
       5    H1      21.066565   17.763782   25.274441 H          1 MOL1         0.0740
       6    H2      21.711823   19.392082   25.455576 H          1 MOL1         0.0740
       7    C3      20.904715   18.993296   23.472581 C.3        1 MOL1        -0.1882
       8    H3      20.708636   20.047316   23.235462 H          1 MOL1         0.0742
       9    H4      21.910385   18.764131   23.095252 H          1 MOL1         0.0742
      10    C4      19.873239   18.084180   22.762563 C.3        1 MOL1        -0.1880
      11    H5      18.856767   18.352858   23.081781 H          1 MOL1         0.0742
      12    H6      20.033167   17.045479   23.082505 H          1 MOL1         0.0742
      13    C5      19.960718   18.141811   21.219011 C.3        1 MOL1        -0.1880
      14    H7      20.974128   17.865974   20.896864 H          1 MOL1         0.0742
      15    H8      19.285142   17.381555   20.803678 H          1 MOL1         0.0742
      16    C6      19.584600   19.521112   20.632300 C.3        1 MOL1        -0.1856
      17    H9      20.295858   20.284406   20.974140 H          1 MOL1         0.0742
      18    H10     18.592511   19.820850   20.997247 H          1 MOL1         0.0742
      19    C7      19.577514   19.496920   19.090517 C.3        1 MOL1        -0.2871
      20    H11     20.566425   19.226370   18.697795 H          1 MOL1         0.0754
      21    H12     19.311843   20.483662   18.689498 H          1 MOL1         0.0754
      22    H13     18.847340   18.769688   18.711929 H          1 MOL1         0.0754
@<TRIPOS>BOND
    1     1     2    1
    2     1     3    2
    3     1     4    1
    4     4     5    1
    5     4     6    1
    6     4     7    1
    7     7     8    1
    8     7     9    1
    9     7    10    1
   10    10    11    1
   11    10    12    1
   12    10    13    1
   13    13    14    1
   14    13    15    1
   15    13    16    1
   16    16    17    1
   17    16    18    1
   18    16    19    1
   19    19    20    1
   20    19    21    1
   21    19    22    1
@<TRIPOS>SUBSTRUCTURE
       1 MOL1            1 RESIDUE      1      MOL     
@<SCITEGIC>MOL_PROPERTY
VM2 Rank
SciTegic.value.IntegerValue
19

@<SCITEGIC>MOL_PROPERTY
Conf_Id
SciTegic.value.IntegerValue
179

@<SCITEGIC>MOL_PROPERTY
Probability
SciTegic.value.DoubleValue
0.71

@<SCITEGIC>MOL_PROPERTY
Sum Probability
SciTegic.value.DoubleValue
93.17

@<SCITEGIC>MOL_PROPERTY
Delta G
SciTegic.value.DoubleValue
2.268

@<SCITEGIC>MOL_PROPERTY
G
SciTegic.value.DoubleValue
-14.731

@<SCITEGIC>MOL_PROPERTY
E
SciTegic.value.DoubleValue
-34.711

@<SCITEGIC>MOL_PROPERTY
-TS
SciTegic.value.DoubleValue
19.980

@<SCITEGIC>MOL_PROPERTY
U+W
SciTegic.value.DoubleValue
-52.596

@<SCITEGIC>MOL_PROPERTY
U
SciTegic.value.DoubleValue
8.925

@<SCITEGIC>MOL_PROPERTY
W
SciTegic.value.DoubleValue
-61.521

@<SCITEGIC>MOL_PROPERTY
W(PB)
SciTegic.value.DoubleValue
-63.790

@<SCITEGIC>MOL_PROPERTY
W(SA)
SciTegic.value.DoubleValue
2.269

@<SCITEGIC>MOL_PROPERTY
Valence
SciTegic.value.DoubleValue
7.881

@<SCITEGIC>MOL_PROPERTY
Coulomb
SciTegic.value.DoubleValue
0.349

@<SCITEGIC>MOL_PROPERTY
VdW
SciTegic.value.DoubleValue
0.695

@<SCITEGIC>MOL_PROPERTY
VdW6
SciTegic.value.DoubleValue
-8.049

@<SCITEGIC>MOL_PROPERTY
VdW12
SciTegic.value.DoubleValue
8.743

@<SCITEGIC>MOL_PROPERTY
Bond
SciTegic.value.DoubleValue
0.156

@<SCITEGIC>MOL_PROPERTY
Angle
SciTegic.value.DoubleValue
2.660

@<SCITEGIC>MOL_PROPERTY
Pdih
SciTegic.value.DoubleValue
5.065

@<SCITEGIC>MOL_PROPERTY
Idih
SciTegic.value.DoubleValue
0.001

@<SCITEGIC>MOL_PROPERTY
Tether
SciTegic.value.DoubleValue
0.000

@<TRIPOS>MOLECULE
guest-s21_vm2.mol2 : vm2 ligand conformer 20
          22          21           1
SMALL
USER_CHARGES
 
@<TRIPOS>ATOM
       1    C1      19.691839   19.357554   25.665805 C.2        1 MOL1         0.6145
       2    O1      19.513014   20.556235   25.576504 O.co2      1 MOL1        -0.6735
       3    O2      18.961511   18.613544   26.290325 O.co2      1 MOL1        -0.6735
       4    C2      20.911573   18.754445   24.974649 C.3        1 MOL1        -0.1985
       5    H1      21.397002   18.083328   25.692958 H          1 MOL1         0.0740
       6    H2      21.625387   19.558769   24.759159 H          1 MOL1         0.0740
       7    C3      20.579150   17.971890   23.677653 C.3        1 MOL1        -0.1882
       8    H3      21.486463   17.462019   23.326461 H          1 MOL1         0.0742
       9    H4      19.843288   17.187903   23.904510 H          1 MOL1         0.0742
      10    C4      20.041617   18.885694   22.553377 C.3        1 MOL1        -0.1880
      11    H5      20.776320   19.675473   22.349740 H          1 MOL1         0.0742
      12    H6      19.121736   19.383706   22.889406 H          1 MOL1         0.0742
      13    C5      19.751850   18.088860   21.260491 C.3        1 MOL1        -0.1880
      14    H7      20.680065   17.632110   20.890801 H          1 MOL1         0.0742
      15    H8      19.069990   17.260564   21.496949 H          1 MOL1         0.0742
      16    C6      19.115081   18.944401   20.140730 C.3        1 MOL1        -0.1856
      17    H9      18.183133   19.398260   20.505176 H          1 MOL1         0.0742
      18    H10     18.833961   18.283763   19.309021 H          1 MOL1         0.0742
      19    C7      20.054366   20.046378   19.604465 C.3        1 MOL1        -0.2871
      20    H11     19.591460   20.565371   18.755191 H          1 MOL1         0.0754
      21    H12     21.005810   19.619264   19.261769 H          1 MOL1         0.0754
      22    H13     20.271052   20.797519   20.374275 H          1 MOL1         0.0754
@<TRIPOS>BOND
    1     1     2    1
    2     1     3    2
    3     1     4    1
    4     4     5    1
    5     4     6    1
    6     4     7    1
    7     7     8    1
    8     7     9    1
    9     7    10    1
   10    10    11    1
   11    10    12    1
   12    10    13    1
   13    13    14    1
   14    13    15    1
   15    13    16    1
   16    16    17    1
   17    16    18    1
   18    16    19    1
   19    19    20    1
   20    19    21    1
   21    19    22    1
@<TRIPOS>SUBSTRUCTURE
       1 MOL1            1 RESIDUE      1      MOL     
@<SCITEGIC>MOL_PROPERTY
VM2 Rank
SciTegic.value.IntegerValue
20

@<SCITEGIC>MOL_PROPERTY
Conf_Id
SciTegic.value.IntegerValue
90

@<SCITEGIC>MOL_PROPERTY
Probability
SciTegic.value.DoubleValue
0.63

@<SCITEGIC>MOL_PROPERTY
Sum Probability
SciTegic.value.DoubleValue
93.80

@<SCITEGIC>MOL_PROPERTY
Delta G
SciTegic.value.DoubleValue
2.339

@<SCITEGIC>MOL_PROPERTY
G
SciTegic.value.DoubleValue
-14.660

@<SCITEGIC>MOL_PROPERTY
E
SciTegic.value.DoubleValue
-34.645

@<SCITEGIC>MOL_PROPERTY
-TS
SciTegic.value.DoubleValue
19.986

@<SCITEGIC>MOL_PROPERTY
U+W
SciTegic.value.DoubleValue
-52.530

@<SCITEGIC>MOL_PROPERTY
U
SciTegic.value.DoubleValue
9.110

@<SCITEGIC>MOL_PROPERTY
W
SciTegic.value.DoubleValue
-61.640

@<SCITEGIC>MOL_PROPERTY
W(PB)
SciTegic.value.DoubleValue
-63.919

@<SCITEGIC>MOL_PROPERTY
W(SA)
SciTegic.value.DoubleValue
2.279

@<SCITEGIC>MOL_PROPERTY
Valence
SciTegic.value.DoubleValue
7.861

@<SCITEGIC>MOL_PROPERTY
Coulomb
SciTegic.value.DoubleValue
0.529

@<SCITEGIC>MOL_PROPERTY
VdW
SciTegic.value.DoubleValue
0.720

@<SCITEGIC>MOL_PROPERTY
VdW6
SciTegic.value.DoubleValue
-7.989

@<SCITEGIC>MOL_PROPERTY
VdW12
SciTegic.value.DoubleValue
8.709

@<SCITEGIC>MOL_PROPERTY
Bond
SciTegic.value.DoubleValue
0.152

@<SCITEGIC>MOL_PROPERTY
Angle
SciTegic.value.DoubleValue
2.653

@<SCITEGIC>MOL_PROPERTY
Pdih
SciTegic.value.DoubleValue
5.055

@<SCITEGIC>MOL_PROPERTY
Idih
SciTegic.value.DoubleValue
0.001

@<SCITEGIC>MOL_PROPERTY
Tether
SciTegic.value.DoubleValue
0.000

@<TRIPOS>MOLECULE
guest-s21_vm2.mol2 : vm2 ligand conformer 21
          22          21           1
SMALL
USER_CHARGES
 
@<TRIPOS>ATOM
       1    C1      19.718641   18.857699   25.684907 C.2        1 MOL1         0.6145
       2    O1      18.910279   19.564780   26.253717 O.co2      1 MOL1        -0.6735
       3    O2      19.669505   17.643464   25.688142 O.co2      1 MOL1        -0.6735
       4    C2      20.869708   19.533338   24.944810 C.3        1 MOL1        -0.1985
       5    H1      21.666368   18.795917   24.788459 H          1 MOL1         0.0740
       6    H2      21.277554   20.305396   25.607829 H          1 MOL1         0.0740
       7    C3      20.460875   20.174537   23.593212 C.3        1 MOL1        -0.1882
       8    H3      19.644522   20.890421   23.762538 H          1 MOL1         0.0742
       9    H4      21.309938   20.750128   23.200390 H          1 MOL1         0.0742
      10    C4      20.028683   19.125334   22.544234 C.3        1 MOL1        -0.1880
      11    H5      19.165790   18.559149   22.921013 H          1 MOL1         0.0742
      12    H6      20.844321   18.405230   22.398658 H          1 MOL1         0.0742
      13    C5      19.661006   19.785507   21.195366 C.3        1 MOL1        -0.1880
      14    H7      18.893716   20.552000   21.370505 H          1 MOL1         0.0742
      15    H8      20.536759   20.309030   20.788112 H          1 MOL1         0.0742
      16    C6      19.123807   18.783809   20.146888 C.3        1 MOL1        -0.1856
      17    H9      18.777307   19.345136   19.268218 H          1 MOL1         0.0742
      18    H10     18.244067   18.262347   20.548721 H          1 MOL1         0.0742
      19    C7      20.177496   17.750529   19.692724 C.3        1 MOL1        -0.2871
      20    H11     21.079394   18.249215   19.314563 H          1 MOL1         0.0754
      21    H12     19.776138   17.121710   18.887490 H          1 MOL1         0.0754
      22    H13     20.469825   17.087861   20.516853 H          1 MOL1         0.0754
@<TRIPOS>BOND
    1     1     2    1
    2     1     3    2
    3     1     4    1
    4     4     5    1
    5     4     6    1
    6     4     7    1
    7     7     8    1
    8     7     9    1
    9     7    10    1
   10    10    11    1
   11    10    12    1
   12    10    13    1
   13    13    14    1
   14    13    15    1
   15    13    16    1
   16    16    17    1
   17    16    18    1
   18    16    19    1
   19    19    20    1
   20    19    21    1
   21    19    22    1
@<TRIPOS>SUBSTRUCTURE
       1 MOL1            1 RESIDUE      1      MOL     
@<SCITEGIC>MOL_PROPERTY
VM2 Rank
SciTegic.value.IntegerValue
21

@<SCITEGIC>MOL_PROPERTY
Conf_Id
SciTegic.value.IntegerValue
367

@<SCITEGIC>MOL_PROPERTY
Probability
SciTegic.value.DoubleValue
0.61

@<SCITEGIC>MOL_PROPERTY
Sum Probability
SciTegic.value.DoubleValue
94.42

@<SCITEGIC>MOL_PROPERTY
Delta G
SciTegic.value.DoubleValue
2.359

@<SCITEGIC>MOL_PROPERTY
G
SciTegic.value.DoubleValue
-14.640

@<SCITEGIC>MOL_PROPERTY
E
SciTegic.value.DoubleValue
-34.625

@<SCITEGIC>MOL_PROPERTY
-TS
SciTegic.value.DoubleValue
19.985

@<SCITEGIC>MOL_PROPERTY
U+W
SciTegic.value.DoubleValue
-52.510

@<SCITEGIC>MOL_PROPERTY
U
SciTegic.value.DoubleValue
9.110

@<SCITEGIC>MOL_PROPERTY
W
SciTegic.value.DoubleValue
-61.620

@<SCITEGIC>MOL_PROPERTY
W(PB)
SciTegic.value.DoubleValue
-63.905

@<SCITEGIC>MOL_PROPERTY
W(SA)
SciTegic.value.DoubleValue
2.285

@<SCITEGIC>MOL_PROPERTY
Valence
SciTegic.value.DoubleValue
7.861

@<SCITEGIC>MOL_PROPERTY
Coulomb
SciTegic.value.DoubleValue
0.529

@<SCITEGIC>MOL_PROPERTY
VdW
SciTegic.value.DoubleValue
0.720

@<SCITEGIC>MOL_PROPERTY
VdW6
SciTegic.value.DoubleValue
-7.989

@<SCITEGIC>MOL_PROPERTY
VdW12
SciTegic.value.DoubleValue
8.709

@<SCITEGIC>MOL_PROPERTY
Bond
SciTegic.value.DoubleValue
0.152

@<SCITEGIC>MOL_PROPERTY
Angle
SciTegic.value.DoubleValue
2.653

@<SCITEGIC>MOL_PROPERTY
Pdih
SciTegic.value.DoubleValue
5.055

@<SCITEGIC>MOL_PROPERTY
Idih
SciTegic.value.DoubleValue
0.001

@<SCITEGIC>MOL_PROPERTY
Tether
SciTegic.value.DoubleValue
0.000

@<TRIPOS>MOLECULE
guest-s21_vm2.mol2 : vm2 ligand conformer 22
          22          21           1
SMALL
USER_CHARGES
 
@<TRIPOS>ATOM
       1    C1      20.140584   18.986194   25.606293 C.2        1 MOL1         0.6145
       2    O1      20.649824   19.999974   26.042045 O.co2      1 MOL1        -0.6735
       3    O2      20.686845   17.900721   25.618077 O.co2      1 MOL1        -0.6735
       4    C2      18.728929   19.079608   25.033739 C.3        1 MOL1        -0.1985
       5    H1      18.127235   19.664745   25.739141 H          1 MOL1         0.0740
       6    H2      18.295088   18.072693   25.005454 H          1 MOL1         0.0740
       7    C3      18.659570   19.732078   23.628524 C.3        1 MOL1        -0.1882
       8    H3      17.605860   19.884887   23.358676 H          1 MOL1         0.0742
       9    H4      19.124180   20.727256   23.665854 H          1 MOL1         0.0742
      10    C4      19.345642   18.875263   22.540765 C.3        1 MOL1        -0.1880
      11    H5      18.884719   17.878506   22.514002 H          1 MOL1         0.0742
      12    H6      20.401698   18.731961   22.804541 H          1 MOL1         0.0742
      13    C5      19.238664   19.532328   21.145278 C.3        1 MOL1        -0.1880
      14    H7      18.181252   19.731606   20.923847 H          1 MOL1         0.0742
      15    H8      19.743643   20.507929   21.156124 H          1 MOL1         0.0742
      16    C6      19.822039   18.660736   20.008886 C.3        1 MOL1        -0.1856
      17    H9      19.600430   19.141997   19.046344 H          1 MOL1         0.0742
      18    H10     19.315933   17.685612   19.992042 H          1 MOL1         0.0742
      19    C7      21.347905   18.452097   20.120392 C.3        1 MOL1        -0.2871
      20    H11     21.873581   19.414616   20.168736 H          1 MOL1         0.0754
      21    H12     21.725257   17.904301   19.247228 H          1 MOL1         0.0754
      22    H13     21.608661   17.871869   21.014383 H          1 MOL1         0.0754
@<TRIPOS>BOND
    1     1     2    1
    2     1     3    2
    3     1     4    1
    4     4     5    1
    5     4     6    1
    6     4     7    1
    7     7     8    1
    8     7     9    1
    9     7    10    1
   10    10    11    1
   11    10    12    1
   12    10    13    1
   13    13    14    1
   14    13    15    1
   15    13    16    1
   16    16    17    1
   17    16    18    1
   18    16    19    1
   19    19    20    1
   20    19    21    1
   21    19    22    1
@<TRIPOS>SUBSTRUCTURE
       1 MOL1            1 RESIDUE      1      MOL     
@<SCITEGIC>MOL_PROPERTY
VM2 Rank
SciTegic.value.IntegerValue
22

@<SCITEGIC>MOL_PROPERTY
Conf_Id
SciTegic.value.IntegerValue
126

@<SCITEGIC>MOL_PROPERTY
Probability
SciTegic.value.DoubleValue
0.61

@<SCITEGIC>MOL_PROPERTY
Sum Probability
SciTegic.value.DoubleValue
95.02

@<SCITEGIC>MOL_PROPERTY
Delta G
SciTegic.value.DoubleValue
2.364

@<SCITEGIC>MOL_PROPERTY
G
SciTegic.value.DoubleValue
-14.635

@<SCITEGIC>MOL_PROPERTY
E
SciTegic.value.DoubleValue
-34.631

@<SCITEGIC>MOL_PROPERTY
-TS
SciTegic.value.DoubleValue
19.996

@<SCITEGIC>MOL_PROPERTY
U+W
SciTegic.value.DoubleValue
-52.516

@<SCITEGIC>MOL_PROPERTY
U
SciTegic.value.DoubleValue
9.377

@<SCITEGIC>MOL_PROPERTY
W
SciTegic.value.DoubleValue
-61.892

@<SCITEGIC>MOL_PROPERTY
W(PB)
SciTegic.value.DoubleValue
-64.194

@<SCITEGIC>MOL_PROPERTY
W(SA)
SciTegic.value.DoubleValue
2.301

@<SCITEGIC>MOL_PROPERTY
Valence
SciTegic.value.DoubleValue
7.860

@<SCITEGIC>MOL_PROPERTY
Coulomb
SciTegic.value.DoubleValue
0.810

@<SCITEGIC>MOL_PROPERTY
VdW
SciTegic.value.DoubleValue
0.706

@<SCITEGIC>MOL_PROPERTY
VdW6
SciTegic.value.DoubleValue
-8.019

@<SCITEGIC>MOL_PROPERTY
VdW12
SciTegic.value.DoubleValue
8.725

@<SCITEGIC>MOL_PROPERTY
Bond
SciTegic.value.DoubleValue
0.153

@<SCITEGIC>MOL_PROPERTY
Angle
SciTegic.value.DoubleValue
2.651

@<SCITEGIC>MOL_PROPERTY
Pdih
SciTegic.value.DoubleValue
5.056

@<SCITEGIC>MOL_PROPERTY
Idih
SciTegic.value.DoubleValue
0.001

@<SCITEGIC>MOL_PROPERTY
Tether
SciTegic.value.DoubleValue
0.000

@<TRIPOS>MOLECULE
guest-s21_vm2.mol2 : vm2 ligand conformer 23
          22          21           1
SMALL
USER_CHARGES
 
@<TRIPOS>ATOM
       1    C1      19.751666   19.150366   25.837394 C.2        1 MOL1         0.6145
       2    O1      19.800116   20.302635   26.220608 O.co2      1 MOL1        -0.6735
       3    O2      18.899970   18.359320   26.191967 O.co2      1 MOL1        -0.6735
       4    C2      20.831850   18.666944   24.873644 C.3        1 MOL1        -0.1985
       5    H1      20.857015   17.570707   24.896390 H          1 MOL1         0.0740
       6    H2      21.796233   19.014536   25.262455 H          1 MOL1         0.0740
       7    C3      20.650425   19.168073   23.417084 C.3        1 MOL1        -0.1882
       8    H3      20.586474   20.265026   23.415086 H          1 MOL1         0.0742
       9    H4      21.547349   18.901482   22.843832 H          1 MOL1         0.0742
      10    C4      19.397746   18.568117   22.734401 C.3        1 MOL1        -0.1880
      11    H5      18.512785   18.789617   23.346587 H          1 MOL1         0.0742
      12    H6      19.483057   17.473447   22.699440 H          1 MOL1         0.0742
      13    C5      19.151160   19.114932   21.308215 C.3        1 MOL1        -0.1880
      14    H7      18.180870   18.739559   20.955315 H          1 MOL1         0.0742
      15    H8      19.066044   20.209654   21.343648 H          1 MOL1         0.0742
      16    C6      20.243954   18.709424   20.293429 C.3        1 MOL1        -0.1856
      17    H9      20.367119   17.617633   20.297849 H          1 MOL1         0.0742
      18    H10     21.210035   19.142534   20.583807 H          1 MOL1         0.0742
      19    C7      19.893113   19.179190   18.867258 C.3        1 MOL1        -0.2871
      20    H11     19.790599   20.271591   18.828081 H          1 MOL1         0.0754
      21    H12     18.948980   18.733639   18.527471 H          1 MOL1         0.0754
      22    H13     20.679574   18.886909   18.159363 H          1 MOL1         0.0754
@<TRIPOS>BOND
    1     1     2    1
    2     1     3    2
    3     1     4    1
    4     4     5    1
    5     4     6    1
    6     4     7    1
    7     7     8    1
    8     7     9    1
    9     7    10    1
   10    10    11    1
   11    10    12    1
   12    10    13    1
   13    13    14    1
   14    13    15    1
   15    13    16    1
   16    16    17    1
   17    16    18    1
   18    16    19    1
   19    19    20    1
   20    19    21    1
   21    19    22    1
@<TRIPOS>SUBSTRUCTURE
       1 MOL1            1 RESIDUE      1      MOL     
@<SCITEGIC>MOL_PROPERTY
VM2 Rank
SciTegic.value.IntegerValue
23

@<SCITEGIC>MOL_PROPERTY
Conf_Id
SciTegic.value.IntegerValue
373

@<SCITEGIC>MOL_PROPERTY
Probability
SciTegic.value.DoubleValue
0.59

@<SCITEGIC>MOL_PROPERTY
Sum Probability
SciTegic.value.DoubleValue
95.61

@<SCITEGIC>MOL_PROPERTY
Delta G
SciTegic.value.DoubleValue
2.381

@<SCITEGIC>MOL_PROPERTY
G
SciTegic.value.DoubleValue
-14.618

@<SCITEGIC>MOL_PROPERTY
E
SciTegic.value.DoubleValue
-34.606

@<SCITEGIC>MOL_PROPERTY
-TS
SciTegic.value.DoubleValue
19.988

@<SCITEGIC>MOL_PROPERTY
U+W
SciTegic.value.DoubleValue
-52.490

@<SCITEGIC>MOL_PROPERTY
U
SciTegic.value.DoubleValue
8.586

@<SCITEGIC>MOL_PROPERTY
W
SciTegic.value.DoubleValue
-61.076

@<SCITEGIC>MOL_PROPERTY
W(PB)
SciTegic.value.DoubleValue
-63.352

@<SCITEGIC>MOL_PROPERTY
W(SA)
SciTegic.value.DoubleValue
2.276

@<SCITEGIC>MOL_PROPERTY
Valence
SciTegic.value.DoubleValue
7.933

@<SCITEGIC>MOL_PROPERTY
Coulomb
SciTegic.value.DoubleValue
-0.125

@<SCITEGIC>MOL_PROPERTY
VdW
SciTegic.value.DoubleValue
0.778

@<SCITEGIC>MOL_PROPERTY
VdW6
SciTegic.value.DoubleValue
-7.981

@<SCITEGIC>MOL_PROPERTY
VdW12
SciTegic.value.DoubleValue
8.759

@<SCITEGIC>MOL_PROPERTY
Bond
SciTegic.value.DoubleValue
0.160

@<SCITEGIC>MOL_PROPERTY
Angle
SciTegic.value.DoubleValue
2.698

@<SCITEGIC>MOL_PROPERTY
Pdih
SciTegic.value.DoubleValue
5.074

@<SCITEGIC>MOL_PROPERTY
Idih
SciTegic.value.DoubleValue
0.000

@<SCITEGIC>MOL_PROPERTY
Tether
SciTegic.value.DoubleValue
0.000

@<TRIPOS>MOLECULE
guest-s21_vm2.mol2 : vm2 ligand conformer 24
          22          21           1
SMALL
USER_CHARGES
 
@<TRIPOS>ATOM
       1    C1      19.616025   18.932049   25.692232 C.2        1 MOL1         0.6145
       2    O1      18.740477   19.715836   26.002025 O.co2      1 MOL1        -0.6735
       3    O2      19.566403   17.740900   25.928061 O.co2      1 MOL1        -0.6735
       4    C2      20.856381   19.474445   24.987664 C.3        1 MOL1        -0.1985
       5    H1      21.731624   19.023175   25.469685 H          1 MOL1         0.0740
       6    H2      20.916928   20.554656   25.167429 H          1 MOL1         0.0740
       7    C3      20.894621   19.180935   23.465373 C.3        1 MOL1        -0.1882
       8    H3      21.871545   19.486831   23.067489 H          1 MOL1         0.0742
       9    H4      20.813330   18.096982   23.310234 H          1 MOL1         0.0742
      10    C4      19.774733   19.917657   22.692290 C.3        1 MOL1        -0.1880
      11    H5      19.821317   20.988874   22.931379 H          1 MOL1         0.0742
      12    H6      18.791534   19.566930   23.035241 H          1 MOL1         0.0742
      13    C5      19.874209   19.752096   21.157290 C.3        1 MOL1        -0.1880
      14    H7      19.122885   20.401788   20.687924 H          1 MOL1         0.0742
      15    H8      20.853605   20.109383   20.810889 H          1 MOL1         0.0742
      16    C6      19.650237   18.299746   20.679079 C.3        1 MOL1        -0.1856
      17    H9      18.694431   17.924299   21.069903 H          1 MOL1         0.0742
      18    H10     20.437681   17.645262   21.075240 H          1 MOL1         0.0742
      19    C7      19.646914   18.205337   19.139986 C.3        1 MOL1        -0.2871
      20    H11     20.602781   18.549434   18.723706 H          1 MOL1         0.0754
      21    H12     18.844641   18.819212   18.710023 H          1 MOL1         0.0754
      22    H13     19.490041   17.168122   18.816512 H          1 MOL1         0.0754
@<TRIPOS>BOND
    1     1     2    1
    2     1     3    2
    3     1     4    1
    4     4     5    1
    5     4     6    1
    6     4     7    1
    7     7     8    1
    8     7     9    1
    9     7    10    1
   10    10    11    1
   11    10    12    1
   12    10    13    1
   13    13    14    1
   14    13    15    1
   15    13    16    1
   16    16    17    1
   17    16    18    1
   18    16    19    1
   19    19    20    1
   20    19    21    1
   21    19    22    1
@<TRIPOS>SUBSTRUCTURE
       1 MOL1            1 RESIDUE      1      MOL     
@<SCITEGIC>MOL_PROPERTY
VM2 Rank
SciTegic.value.IntegerValue
24

@<SCITEGIC>MOL_PROPERTY
Conf_Id
SciTegic.value.IntegerValue
183

@<SCITEGIC>MOL_PROPERTY
Probability
SciTegic.value.DoubleValue
0.58

@<SCITEGIC>MOL_PROPERTY
Sum Probability
SciTegic.value.DoubleValue
96.20

@<SCITEGIC>MOL_PROPERTY
Delta G
SciTegic.value.DoubleValue
2.388

@<SCITEGIC>MOL_PROPERTY
G
SciTegic.value.DoubleValue
-14.611

@<SCITEGIC>MOL_PROPERTY
E
SciTegic.value.DoubleValue
-34.592

@<SCITEGIC>MOL_PROPERTY
-TS
SciTegic.value.DoubleValue
19.981

@<SCITEGIC>MOL_PROPERTY
U+W
SciTegic.value.DoubleValue
-52.477

@<SCITEGIC>MOL_PROPERTY
U
SciTegic.value.DoubleValue
8.925

@<SCITEGIC>MOL_PROPERTY
W
SciTegic.value.DoubleValue
-61.401

@<SCITEGIC>MOL_PROPERTY
W(PB)
SciTegic.value.DoubleValue
-63.682

@<SCITEGIC>MOL_PROPERTY
W(SA)
SciTegic.value.DoubleValue
2.281

@<SCITEGIC>MOL_PROPERTY
Valence
SciTegic.value.DoubleValue
7.881

@<SCITEGIC>MOL_PROPERTY
Coulomb
SciTegic.value.DoubleValue
0.349

@<SCITEGIC>MOL_PROPERTY
VdW
SciTegic.value.DoubleValue
0.695

@<SCITEGIC>MOL_PROPERTY
VdW6
SciTegic.value.DoubleValue
-8.049

@<SCITEGIC>MOL_PROPERTY
VdW12
SciTegic.value.DoubleValue
8.743

@<SCITEGIC>MOL_PROPERTY
Bond
SciTegic.value.DoubleValue
0.156

@<SCITEGIC>MOL_PROPERTY
Angle
SciTegic.value.DoubleValue
2.660

@<SCITEGIC>MOL_PROPERTY
Pdih
SciTegic.value.DoubleValue
5.065

@<SCITEGIC>MOL_PROPERTY
Idih
SciTegic.value.DoubleValue
0.001

@<SCITEGIC>MOL_PROPERTY
Tether
SciTegic.value.DoubleValue
0.000

@<TRIPOS>MOLECULE
guest-s21_vm2.mol2 : vm2 ligand conformer 25
          22          21           1
SMALL
USER_CHARGES
 
@<TRIPOS>ATOM
       1    C1      20.125218   19.269634   25.595440 C.2        1 MOL1         0.6145
       2    O1      20.551259   20.405364   25.521983 O.co2      1 MOL1        -0.6735
       3    O2      20.738924   18.352934   26.105323 O.co2      1 MOL1        -0.6735
       4    C2      18.734255   18.981144   25.037484 C.3        1 MOL1        -0.1985
       5    H1      18.194545   19.930312   24.934100 H          1 MOL1         0.0740
       6    H2      18.196188   18.390201   25.788004 H          1 MOL1         0.0740
       7    C3      18.741487   18.219520   23.686546 C.3        1 MOL1        -0.1882
       8    H3      19.310567   17.286044   23.797901 H          1 MOL1         0.0742
       9    H4      17.711534   17.933771   23.433536 H          1 MOL1         0.0742
      10    C4      19.335619   19.059677   22.533642 C.3        1 MOL1        -0.1880
      11    H5      20.368901   19.335949   22.781377 H          1 MOL1         0.0742
      12    H6      18.769867   19.995840   22.432581 H          1 MOL1         0.0742
      13    C5      19.306130   18.290089   21.192961 C.3        1 MOL1        -0.1880
      14    H7      19.913560   17.378500   21.276325 H          1 MOL1         0.0742
      15    H8      18.277392   17.961322   20.991781 H          1 MOL1         0.0742
      16    C6      19.796619   19.130144   19.990831 C.3        1 MOL1        -0.1856
      17    H9      19.188105   20.040652   19.901503 H          1 MOL1         0.0742
      18    H10     19.632407   18.555519   19.068848 H          1 MOL1         0.0742
      19    C7      21.290490   19.510494   20.079790 C.3        1 MOL1        -0.2871
      20    H11     21.483221   20.182160   20.925721 H          1 MOL1         0.0754
      21    H12     21.610041   20.027522   19.165755 H          1 MOL1         0.0754
      22    H13     21.916966   18.617000   20.199421 H          1 MOL1         0.0754
@<TRIPOS>BOND
    1     1     2    1
    2     1     3    2
    3     1     4    1
    4     4     5    1
    5     4     6    1
    6     4     7    1
    7     7     8    1
    8     7     9    1
    9     7    10    1
   10    10    11    1
   11    10    12    1
   12    10    13    1
   13    13    14    1
   14    13    15    1
   15    13    16    1
   16    16    17    1
   17    16    18    1
   18    16    19    1
   19    19    20    1
   20    19    21    1
   21    19    22    1
@<TRIPOS>SUBSTRUCTURE
       1 MOL1            1 RESIDUE      1      MOL     
@<SCITEGIC>MOL_PROPERTY
VM2 Rank
SciTegic.value.IntegerValue
25

@<SCITEGIC>MOL_PROPERTY
Conf_Id
SciTegic.value.IntegerValue
178

@<SCITEGIC>MOL_PROPERTY
Probability
SciTegic.value.DoubleValue
0.58

@<SCITEGIC>MOL_PROPERTY
Sum Probability
SciTegic.value.DoubleValue
96.78

@<SCITEGIC>MOL_PROPERTY
Delta G
SciTegic.value.DoubleValue
2.389

@<SCITEGIC>MOL_PROPERTY
G
SciTegic.value.DoubleValue
-14.609

@<SCITEGIC>MOL_PROPERTY
E
SciTegic.value.DoubleValue
-34.606

@<SCITEGIC>MOL_PROPERTY
-TS
SciTegic.value.DoubleValue
19.997

@<SCITEGIC>MOL_PROPERTY
U+W
SciTegic.value.DoubleValue
-52.491

@<SCITEGIC>MOL_PROPERTY
U
SciTegic.value.DoubleValue
9.376

@<SCITEGIC>MOL_PROPERTY
W
SciTegic.value.DoubleValue
-61.867

@<SCITEGIC>MOL_PROPERTY
W(PB)
SciTegic.value.DoubleValue
-64.155

@<SCITEGIC>MOL_PROPERTY
W(SA)
SciTegic.value.DoubleValue
2.288

@<SCITEGIC>MOL_PROPERTY
Valence
SciTegic.value.DoubleValue
7.861

@<SCITEGIC>MOL_PROPERTY
Coulomb
SciTegic.value.DoubleValue
0.810

@<SCITEGIC>MOL_PROPERTY
VdW
SciTegic.value.DoubleValue
0.706

@<SCITEGIC>MOL_PROPERTY
VdW6
SciTegic.value.DoubleValue
-8.019

@<SCITEGIC>MOL_PROPERTY
VdW12
SciTegic.value.DoubleValue
8.725

@<SCITEGIC>MOL_PROPERTY
Bond
SciTegic.value.DoubleValue
0.153

@<SCITEGIC>MOL_PROPERTY
Angle
SciTegic.value.DoubleValue
2.651

@<SCITEGIC>MOL_PROPERTY
Pdih
SciTegic.value.DoubleValue
5.056

@<SCITEGIC>MOL_PROPERTY
Idih
SciTegic.value.DoubleValue
0.001

@<SCITEGIC>MOL_PROPERTY
Tether
SciTegic.value.DoubleValue
0.000

@<TRIPOS>MOLECULE
guest-s21_vm2.mol2 : vm2 ligand conformer 26
          22          21           1
SMALL
USER_CHARGES
 
@<TRIPOS>ATOM
       1    C1      19.755309   19.082560   25.839987 C.2        1 MOL1         0.6145
       2    O1      18.822234   19.802434   26.136660 O.co2      1 MOL1        -0.6735
       3    O2      19.925462   17.974736   26.309772 O.co2      1 MOL1        -0.6735
       4    C2      20.781371   19.604092   24.837737 C.3        1 MOL1        -0.1985
       5    H1      21.775862   19.392607   25.247971 H          1 MOL1         0.0740
       6    H2      20.688736   20.695229   24.776675 H          1 MOL1         0.0740
       7    C3      20.660714   18.976726   23.424420 C.3        1 MOL1        -0.1882
       8    H3      21.526279   19.293341   22.828841 H          1 MOL1         0.0742
       9    H4      20.714658   17.882301   23.506411 H          1 MOL1         0.0742
      10    C4      19.353810   19.385162   22.703040 C.3        1 MOL1        -0.1880
      11    H5      19.321586   20.476778   22.584145 H          1 MOL1         0.0742
      12    H6      18.495145   19.117652   23.334010 H          1 MOL1         0.0742
      13    C5      19.173029   18.707667   21.323856 C.3        1 MOL1        -0.1880
      14    H7      19.205309   17.616054   21.443253 H          1 MOL1         0.0742
      15    H8      18.169637   18.949044   20.947234 H          1 MOL1         0.0742
      16    C6      20.220402   19.148899   20.276596 C.3        1 MOL1        -0.1856
      17    H9      21.226032   18.844986   20.595286 H          1 MOL1         0.0742
      18    H10     20.226154   20.244725   20.197062 H          1 MOL1         0.0742
      19    C7      19.927670   18.536724   18.891932 C.3        1 MOL1        -0.2871
      20    H11     19.942713   17.439842   18.936747 H          1 MOL1         0.0754
      21    H12     20.681271   18.856482   18.160562 H          1 MOL1         0.0754
      22    H13     18.942715   18.851498   18.522961 H          1 MOL1         0.0754
@<TRIPOS>BOND
    1     1     2    1
    2     1     3    2
    3     1     4    1
    4     4     5    1
    5     4     6    1
    6     4     7    1
    7     7     8    1
    8     7     9    1
    9     7    10    1
   10    10    11    1
   11    10    12    1
   12    10    13    1
   13    13    14    1
   14    13    15    1
   15    13    16    1
   16    16    17    1
   17    16    18    1
   18    16    19    1
   19    19    20    1
   20    19    21    1
   21    19    22    1
@<TRIPOS>SUBSTRUCTURE
       1 MOL1            1 RESIDUE      1      MOL     
@<SCITEGIC>MOL_PROPERTY
VM2 Rank
SciTegic.value.IntegerValue
26

@<SCITEGIC>MOL_PROPERTY
Conf_Id
SciTegic.value.IntegerValue
491

@<SCITEGIC>MOL_PROPERTY
Probability
SciTegic.value.DoubleValue
0.57

@<SCITEGIC>MOL_PROPERTY
Sum Probability
SciTegic.value.DoubleValue
97.35

@<SCITEGIC>MOL_PROPERTY
Delta G
SciTegic.value.DoubleValue
2.403

@<SCITEGIC>MOL_PROPERTY
G
SciTegic.value.DoubleValue
-14.596

@<SCITEGIC>MOL_PROPERTY
E
SciTegic.value.DoubleValue
-34.585

@<SCITEGIC>MOL_PROPERTY
-TS
SciTegic.value.DoubleValue
19.988

@<SCITEGIC>MOL_PROPERTY
U+W
SciTegic.value.DoubleValue
-52.469

@<SCITEGIC>MOL_PROPERTY
U
SciTegic.value.DoubleValue
8.586

@<SCITEGIC>MOL_PROPERTY
W
SciTegic.value.DoubleValue
-61.055

@<SCITEGIC>MOL_PROPERTY
W(PB)
SciTegic.value.DoubleValue
-63.352

@<SCITEGIC>MOL_PROPERTY
W(SA)
SciTegic.value.DoubleValue
2.296

@<SCITEGIC>MOL_PROPERTY
Valence
SciTegic.value.DoubleValue
7.933

@<SCITEGIC>MOL_PROPERTY
Coulomb
SciTegic.value.DoubleValue
-0.125

@<SCITEGIC>MOL_PROPERTY
VdW
SciTegic.value.DoubleValue
0.778

@<SCITEGIC>MOL_PROPERTY
VdW6
SciTegic.value.DoubleValue
-7.981

@<SCITEGIC>MOL_PROPERTY
VdW12
SciTegic.value.DoubleValue
8.759

@<SCITEGIC>MOL_PROPERTY
Bond
SciTegic.value.DoubleValue
0.160

@<SCITEGIC>MOL_PROPERTY
Angle
SciTegic.value.DoubleValue
2.698

@<SCITEGIC>MOL_PROPERTY
Pdih
SciTegic.value.DoubleValue
5.074

@<SCITEGIC>MOL_PROPERTY
Idih
SciTegic.value.DoubleValue
0.000

@<SCITEGIC>MOL_PROPERTY
Tether
SciTegic.value.DoubleValue
0.000

@<TRIPOS>MOLECULE
guest-s21_vm2.mol2 : vm2 ligand conformer 27
          22          21           1
SMALL
USER_CHARGES
 
@<TRIPOS>ATOM
       1    C1      19.975232   19.420253   25.449020 C.2        1 MOL1         0.6145
       2    O1      20.405979   20.498804   25.091420 O.co2      1 MOL1        -0.6735
       3    O2      19.159931   19.284137   26.340117 O.co2      1 MOL1        -0.6735
       4    C2      20.506969   18.164834   24.763192 C.3        1 MOL1        -0.1985
       5    H1      20.826675   17.473767   25.551819 H          1 MOL1         0.0740
       6    H2      21.408325   18.428089   24.198155 H          1 MOL1         0.0740
       7    C3      19.472654   17.455077   23.847169 C.3        1 MOL1        -0.1882
       8    H3      19.917355   16.533157   23.448840 H          1 MOL1         0.0742
       9    H4      18.615349   17.143257   24.459658 H          1 MOL1         0.0742
      10    C4      18.956593   18.321169   22.671917 C.3        1 MOL1        -0.1880
      11    H5      18.468154   19.224284   23.063159 H          1 MOL1         0.0742
      12    H6      18.179941   17.756054   22.138765 H          1 MOL1         0.0742
      13    C5      20.064061   18.723223   21.671027 C.3        1 MOL1        -0.1880
      14    H7      20.801675   19.365354   22.170483 H          1 MOL1         0.0742
      15    H8      20.596123   17.824828   21.329732 H          1 MOL1         0.0742
      16    C6      19.486270   19.474062   20.452925 C.3        1 MOL1        -0.1856
      17    H9      18.954208   20.373753   20.792039 H          1 MOL1         0.0742
      18    H10     18.748717   18.840063   19.941631 H          1 MOL1         0.0742
      19    C7      20.592312   19.877442   19.457211 C.3        1 MOL1        -0.2871
      20    H11     20.164114   20.410184   18.598215 H          1 MOL1         0.0754
      21    H12     21.121338   18.993112   19.078466 H          1 MOL1         0.0754
      22    H13     21.327570   20.538780   19.934136 H          1 MOL1         0.0754
@<TRIPOS>BOND
    1     1     2    1
    2     1     3    2
    3     1     4    1
    4     4     5    1
    5     4     6    1
    6     4     7    1
    7     7     8    1
    8     7     9    1
    9     7    10    1
   10    10    11    1
   11    10    12    1
   12    10    13    1
   13    13    14    1
   14    13    15    1
   15    13    16    1
   16    16    17    1
   17    16    18    1
   18    16    19    1
   19    19    20    1
   20    19    21    1
   21    19    22    1
@<TRIPOS>SUBSTRUCTURE
       1 MOL1            1 RESIDUE      1      MOL     
@<SCITEGIC>MOL_PROPERTY
VM2 Rank
SciTegic.value.IntegerValue
27

@<SCITEGIC>MOL_PROPERTY
Conf_Id
SciTegic.value.IntegerValue
537

@<SCITEGIC>MOL_PROPERTY
Probability
SciTegic.value.DoubleValue
0.40

@<SCITEGIC>MOL_PROPERTY
Sum Probability
SciTegic.value.DoubleValue
97.75

@<SCITEGIC>MOL_PROPERTY
Delta G
SciTegic.value.DoubleValue
2.612

@<SCITEGIC>MOL_PROPERTY
G
SciTegic.value.DoubleValue
-14.387

@<SCITEGIC>MOL_PROPERTY
E
SciTegic.value.DoubleValue
-34.414

@<SCITEGIC>MOL_PROPERTY
-TS
SciTegic.value.DoubleValue
20.027

@<SCITEGIC>MOL_PROPERTY
U+W
SciTegic.value.DoubleValue
-52.299

@<SCITEGIC>MOL_PROPERTY
U
SciTegic.value.DoubleValue
9.623

@<SCITEGIC>MOL_PROPERTY
W
SciTegic.value.DoubleValue
-61.922

@<SCITEGIC>MOL_PROPERTY
W(PB)
SciTegic.value.DoubleValue
-64.197

@<SCITEGIC>MOL_PROPERTY
W(SA)
SciTegic.value.DoubleValue
2.275

@<SCITEGIC>MOL_PROPERTY
Valence
SciTegic.value.DoubleValue
7.870

@<SCITEGIC>MOL_PROPERTY
Coulomb
SciTegic.value.DoubleValue
1.264

@<SCITEGIC>MOL_PROPERTY
VdW
SciTegic.value.DoubleValue
0.489

@<SCITEGIC>MOL_PROPERTY
VdW6
SciTegic.value.DoubleValue
-8.389

@<SCITEGIC>MOL_PROPERTY
VdW12
SciTegic.value.DoubleValue
8.878

@<SCITEGIC>MOL_PROPERTY
Bond
SciTegic.value.DoubleValue
0.170

@<SCITEGIC>MOL_PROPERTY
Angle
SciTegic.value.DoubleValue
2.768

@<SCITEGIC>MOL_PROPERTY
Pdih
SciTegic.value.DoubleValue
4.931

@<SCITEGIC>MOL_PROPERTY
Idih
SciTegic.value.DoubleValue
0.001

@<SCITEGIC>MOL_PROPERTY
Tether
SciTegic.value.DoubleValue
0.000

@<TRIPOS>MOLECULE
guest-s21_vm2.mol2 : vm2 ligand conformer 28
          22          21           1
SMALL
USER_CHARGES
 
@<TRIPOS>ATOM
       1    C1      20.096740   19.334251   25.452370 C.2        1 MOL1         0.6145
       2    O1      20.984696   20.088817   25.107616 O.co2      1 MOL1        -0.6735
       3    O2      20.204795   18.543741   26.369277 O.co2      1 MOL1        -0.6735
       4    C2      18.762793   19.400720   24.713894 C.3        1 MOL1        -0.1985
       5    H1      18.734077   20.322941   24.122540 H          1 MOL1         0.0740
       6    H2      17.975784   19.493901   25.471292 H          1 MOL1         0.0740
       7    C3      18.470050   18.165436   23.818886 C.3        1 MOL1        -0.1882
       8    H3      18.436497   17.269919   24.454706 H          1 MOL1         0.0742
       9    H4      17.468614   18.268260   23.379667 H          1 MOL1         0.0742
      10    C4      19.501648   17.934765   22.687403 C.3        1 MOL1        -0.1880
      11    H5      19.245597   17.000725   22.168938 H          1 MOL1         0.0742
      12    H6      20.500057   17.784144   23.120709 H          1 MOL1         0.0742
      13    C5      19.552318   19.085811   21.656655 C.3        1 MOL1        -0.1880
      14    H7      18.542073   19.280424   21.271669 H          1 MOL1         0.0742
      15    H8      19.895103   20.007702   22.144995 H          1 MOL1         0.0742
      16    C6      20.497351   18.757581   20.481683 C.3        1 MOL1        -0.1856
      17    H9      20.162639   17.838149   19.981710 H          1 MOL1         0.0742
      18    H10     21.508891   18.563304   20.864534 H          1 MOL1         0.0742
      19    C7      20.549609   19.907878   19.456216 C.3        1 MOL1        -0.2871
      20    H11     19.555054   20.103349   19.034306 H          1 MOL1         0.0754
      21    H12     21.225959   19.657912   18.628501 H          1 MOL1         0.0754
      22    H13     20.912181   20.833294   19.922669 H          1 MOL1         0.0754
@<TRIPOS>BOND
    1     1     2    1
    2     1     3    2
    3     1     4    1
    4     4     5    1
    5     4     6    1
    6     4     7    1
    7     7     8    1
    8     7     9    1
    9     7    10    1
   10    10    11    1
   11    10    12    1
   12    10    13    1
   13    13    14    1
   14    13    15    1
   15    13    16    1
   16    16    17    1
   17    16    18    1
   18    16    19    1
   19    19    20    1
   20    19    21    1
   21    19    22    1
@<TRIPOS>SUBSTRUCTURE
       1 MOL1            1 RESIDUE      1      MOL     
@<SCITEGIC>MOL_PROPERTY
VM2 Rank
SciTegic.value.IntegerValue
28

@<SCITEGIC>MOL_PROPERTY
Conf_Id
SciTegic.value.IntegerValue
84

@<SCITEGIC>MOL_PROPERTY
Probability
SciTegic.value.DoubleValue
0.39

@<SCITEGIC>MOL_PROPERTY
Sum Probability
SciTegic.value.DoubleValue
98.14

@<SCITEGIC>MOL_PROPERTY
Delta G
SciTegic.value.DoubleValue
2.624

@<SCITEGIC>MOL_PROPERTY
G
SciTegic.value.DoubleValue
-14.375

@<SCITEGIC>MOL_PROPERTY
E
SciTegic.value.DoubleValue
-34.402

@<SCITEGIC>MOL_PROPERTY
-TS
SciTegic.value.DoubleValue
20.027

@<SCITEGIC>MOL_PROPERTY
U+W
SciTegic.value.DoubleValue
-52.287

@<SCITEGIC>MOL_PROPERTY
U
SciTegic.value.DoubleValue
9.624

@<SCITEGIC>MOL_PROPERTY
W
SciTegic.value.DoubleValue
-61.911

@<SCITEGIC>MOL_PROPERTY
W(PB)
SciTegic.value.DoubleValue
-64.185

@<SCITEGIC>MOL_PROPERTY
W(SA)
SciTegic.value.DoubleValue
2.274

@<SCITEGIC>MOL_PROPERTY
Valence
SciTegic.value.DoubleValue
7.870

@<SCITEGIC>MOL_PROPERTY
Coulomb
SciTegic.value.DoubleValue
1.265

@<SCITEGIC>MOL_PROPERTY
VdW
SciTegic.value.DoubleValue
0.489

@<SCITEGIC>MOL_PROPERTY
VdW6
SciTegic.value.DoubleValue
-8.389

@<SCITEGIC>MOL_PROPERTY
VdW12
SciTegic.value.DoubleValue
8.878

@<SCITEGIC>MOL_PROPERTY
Bond
SciTegic.value.DoubleValue
0.170

@<SCITEGIC>MOL_PROPERTY
Angle
SciTegic.value.DoubleValue
2.768

@<SCITEGIC>MOL_PROPERTY
Pdih
SciTegic.value.DoubleValue
4.931

@<SCITEGIC>MOL_PROPERTY
Idih
SciTegic.value.DoubleValue
0.001

@<SCITEGIC>MOL_PROPERTY
Tether
SciTegic.value.DoubleValue
0.000

@<TRIPOS>MOLECULE
guest-s21_vm2.mol2 : vm2 ligand conformer 29
          22          21           1
SMALL
USER_CHARGES
 
@<TRIPOS>ATOM
       1    C1      19.940898   18.867174   25.681184 C.2        1 MOL1         0.6145
       2    O1      19.859581   19.708148   26.554597 O.co2      1 MOL1        -0.6735
       3    O2      20.577556   17.838465   25.795204 O.co2      1 MOL1        -0.6735
       4    C2      19.220189   19.126400   24.363112 C.3        1 MOL1        -0.1985
       5    H1      18.905474   18.157671   23.958696 H          1 MOL1         0.0740
       6    H2      18.311306   19.700662   24.578486 H          1 MOL1         0.0740
       7    C3      20.101067   19.884257   23.336390 C.3        1 MOL1        -0.1882
       8    H3      20.467197   20.810174   23.800849 H          1 MOL1         0.0742
       9    H4      20.993179   19.286948   23.105766 H          1 MOL1         0.0742
      10    C4      19.352388   20.249527   22.030069 C.3        1 MOL1        -0.1880
      11    H5      20.026860   20.826390   21.383700 H          1 MOL1         0.0742
      12    H6      18.523411   20.927465   22.274496 H          1 MOL1         0.0742
      13    C5      18.787110   19.043960   21.233678 C.3        1 MOL1        -0.1880
      14    H7      17.992477   18.562390   21.818402 H          1 MOL1         0.0742
      15    H8      18.298649   19.422684   20.325647 H          1 MOL1         0.0742
      16    C6      19.830735   17.973992   20.828779 C.3        1 MOL1        -0.1856
      17    H9      19.313283   17.163256   20.297873 H          1 MOL1         0.0742
      18    H10     20.271504   17.517395   21.725018 H          1 MOL1         0.0742
      19    C7      20.950475   18.527078   19.920988 C.3        1 MOL1        -0.2871
      20    H11     21.563070   19.267737   20.450242 H          1 MOL1         0.0754
      21    H12     20.530739   19.003272   19.025435 H          1 MOL1         0.0754
      22    H13     21.615370   17.717256   19.594110 H          1 MOL1         0.0754
@<TRIPOS>BOND
    1     1     2    1
    2     1     3    2
    3     1     4    1
    4     4     5    1
    5     4     6    1
    6     4     7    1
    7     7     8    1
    8     7     9    1
    9     7    10    1
   10    10    11    1
   11    10    12    1
   12    10    13    1
   13    13    14    1
   14    13    15    1
   15    13    16    1
   16    16    17    1
   17    16    18    1
   18    16    19    1
   19    19    20    1
   20    19    21    1
   21    19    22    1
@<TRIPOS>SUBSTRUCTURE
       1 MOL1            1 RESIDUE      1      MOL     
@<SCITEGIC>MOL_PROPERTY
VM2 Rank
SciTegic.value.IntegerValue
29

@<SCITEGIC>MOL_PROPERTY
Conf_Id
SciTegic.value.IntegerValue
568

@<SCITEGIC>MOL_PROPERTY
Probability
SciTegic.value.DoubleValue
0.25

@<SCITEGIC>MOL_PROPERTY
Sum Probability
SciTegic.value.DoubleValue
98.39

@<SCITEGIC>MOL_PROPERTY
Delta G
SciTegic.value.DoubleValue
2.890

@<SCITEGIC>MOL_PROPERTY
G
SciTegic.value.DoubleValue
-14.109

@<SCITEGIC>MOL_PROPERTY
E
SciTegic.value.DoubleValue
-34.425

@<SCITEGIC>MOL_PROPERTY
-TS
SciTegic.value.DoubleValue
20.316

@<SCITEGIC>MOL_PROPERTY
U+W
SciTegic.value.DoubleValue
-52.310

@<SCITEGIC>MOL_PROPERTY
U
SciTegic.value.DoubleValue
8.874

@<SCITEGIC>MOL_PROPERTY
W
SciTegic.value.DoubleValue
-61.184

@<SCITEGIC>MOL_PROPERTY
W(PB)
SciTegic.value.DoubleValue
-63.414

@<SCITEGIC>MOL_PROPERTY
W(SA)
SciTegic.value.DoubleValue
2.230

@<SCITEGIC>MOL_PROPERTY
Valence
SciTegic.value.DoubleValue
8.479

@<SCITEGIC>MOL_PROPERTY
Coulomb
SciTegic.value.DoubleValue
-0.357

@<SCITEGIC>MOL_PROPERTY
VdW
SciTegic.value.DoubleValue
0.753

@<SCITEGIC>MOL_PROPERTY
VdW6
SciTegic.value.DoubleValue
-9.081

@<SCITEGIC>MOL_PROPERTY
VdW12
SciTegic.value.DoubleValue
9.833

@<SCITEGIC>MOL_PROPERTY
Bond
SciTegic.value.DoubleValue
0.221

@<SCITEGIC>MOL_PROPERTY
Angle
SciTegic.value.DoubleValue
3.208

@<SCITEGIC>MOL_PROPERTY
Pdih
SciTegic.value.DoubleValue
5.050

@<SCITEGIC>MOL_PROPERTY
Idih
SciTegic.value.DoubleValue
0.000

@<SCITEGIC>MOL_PROPERTY
Tether
SciTegic.value.DoubleValue
0.000

@<TRIPOS>MOLECULE
guest-s21_vm2.mol2 : vm2 ligand conformer 30
          22          21           1
SMALL
USER_CHARGES
 
@<TRIPOS>ATOM
       1    C1      19.913698   19.371746   25.661869 C.2        1 MOL1         0.6145
       2    O1      20.435221   20.468799   25.694495 O.co2      1 MOL1        -0.6735
       3    O2      19.920085   18.595903   26.597137 O.co2      1 MOL1        -0.6735
       4    C2      19.230402   18.936662   24.370460 C.3        1 MOL1        -0.1985
       5    H1      18.815032   19.832218   23.894562 H          1 MOL1         0.0740
       6    H2      18.387640   18.286177   24.632857 H          1 MOL1         0.0740
       7    C3      20.191797   18.201679   23.400941 C.3        1 MOL1        -0.1882
       8    H3      21.015502   18.872018   23.121692 H          1 MOL1         0.0742
       9    H4      20.653394   17.358639   23.933207 H          1 MOL1         0.0742
      10    C4      19.492038   17.659421   22.129442 C.3        1 MOL1        -0.1880
      11    H5      18.739634   16.917073   22.428367 H          1 MOL1         0.0742
      12    H6      20.227191   17.110614   21.526258 H          1 MOL1         0.0742
      13    C5      18.803884   18.732951   21.245617 C.3        1 MOL1        -0.1880
      14    H7      18.362601   18.235710   20.371223 H          1 MOL1         0.0742
      15    H8      17.959778   19.169724   21.795131 H          1 MOL1         0.0742
      16    C6      19.728284   19.874653   20.755792 C.3        1 MOL1        -0.1856
      17    H9      20.113859   20.443060   21.612675 H          1 MOL1         0.0742
      18    H10     19.128971   20.582219   20.166656 H          1 MOL1         0.0742
      19    C7      20.904591   19.377188   19.888246 C.3        1 MOL1        -0.2871
      20    H11     21.590986   18.749173   20.469983 H          1 MOL1         0.0754
      21    H12     21.480052   20.226326   19.497666 H          1 MOL1         0.0754
      22    H13     20.542025   18.791663   19.033459 H          1 MOL1         0.0754
@<TRIPOS>BOND
    1     1     2    1
    2     1     3    2
    3     1     4    1
    4     4     5    1
    5     4     6    1
    6     4     7    1
    7     7     8    1
    8     7     9    1
    9     7    10    1
   10    10    11    1
   11    10    12    1
   12    10    13    1
   13    13    14    1
   14    13    15    1
   15    13    16    1
   16    16    17    1
   17    16    18    1
   18    16    19    1
   19    19    20    1
   20    19    21    1
   21    19    22    1
@<TRIPOS>SUBSTRUCTURE
       1 MOL1            1 RESIDUE      1      MOL     
@<SCITEGIC>MOL_PROPERTY
VM2 Rank
SciTegic.value.IntegerValue
30

@<SCITEGIC>MOL_PROPERTY
Conf_Id
SciTegic.value.IntegerValue
104

@<SCITEGIC>MOL_PROPERTY
Probability
SciTegic.value.DoubleValue
0.23

@<SCITEGIC>MOL_PROPERTY
Sum Probability
SciTegic.value.DoubleValue
98.63

@<SCITEGIC>MOL_PROPERTY
Delta G
SciTegic.value.DoubleValue
2.932

@<SCITEGIC>MOL_PROPERTY
G
SciTegic.value.DoubleValue
-14.066

@<SCITEGIC>MOL_PROPERTY
E
SciTegic.value.DoubleValue
-34.382

@<SCITEGIC>MOL_PROPERTY
-TS
SciTegic.value.DoubleValue
20.316

@<SCITEGIC>MOL_PROPERTY
U+W
SciTegic.value.DoubleValue
-52.267

@<SCITEGIC>MOL_PROPERTY
U
SciTegic.value.DoubleValue
8.874

@<SCITEGIC>MOL_PROPERTY
W
SciTegic.value.DoubleValue
-61.141

@<SCITEGIC>MOL_PROPERTY
W(PB)
SciTegic.value.DoubleValue
-63.378

@<SCITEGIC>MOL_PROPERTY
W(SA)
SciTegic.value.DoubleValue
2.237

@<SCITEGIC>MOL_PROPERTY
Valence
SciTegic.value.DoubleValue
8.479

@<SCITEGIC>MOL_PROPERTY
Coulomb
SciTegic.value.DoubleValue
-0.357

@<SCITEGIC>MOL_PROPERTY
VdW
SciTegic.value.DoubleValue
0.753

@<SCITEGIC>MOL_PROPERTY
VdW6
SciTegic.value.DoubleValue
-9.080

@<SCITEGIC>MOL_PROPERTY
VdW12
SciTegic.value.DoubleValue
9.833

@<SCITEGIC>MOL_PROPERTY
Bond
SciTegic.value.DoubleValue
0.221

@<SCITEGIC>MOL_PROPERTY
Angle
SciTegic.value.DoubleValue
3.208

@<SCITEGIC>MOL_PROPERTY
Pdih
SciTegic.value.DoubleValue
5.050

@<SCITEGIC>MOL_PROPERTY
Idih
SciTegic.value.DoubleValue
0.000

@<SCITEGIC>MOL_PROPERTY
Tether
SciTegic.value.DoubleValue
0.000

@<TRIPOS>MOLECULE
guest-s21_vm2.mol2 : vm2 ligand conformer 31
          22          21           1
SMALL
USER_CHARGES
 
@<TRIPOS>ATOM
       1    C1      19.758883   19.200248   25.723279 C.2        1 MOL1         0.6145
       2    O1      20.189932   20.309214   25.970882 O.co2      1 MOL1        -0.6735
       3    O2      20.084604   18.200939   26.333427 O.co2      1 MOL1        -0.6735
       4    C2      18.736294   19.055576   24.599591 C.3        1 MOL1        -0.1985
       5    H1      18.302846   20.041166   24.390782 H          1 MOL1         0.0740
       6    H2      17.922893   18.424669   24.976829 H          1 MOL1         0.0740
       7    C3      19.309625   18.436858   23.298067 C.3        1 MOL1        -0.1882
       8    H3      19.775643   17.468969   23.528867 H          1 MOL1         0.0742
       9    H4      18.476251   18.233396   22.613533 H          1 MOL1         0.0742
      10    C4      20.337121   19.361834   22.602867 C.3        1 MOL1        -0.1880
      11    H5      21.137226   19.609873   23.313557 H          1 MOL1         0.0742
      12    H6      19.860217   20.315105   22.340153 H          1 MOL1         0.0742
      13    C5      20.986443   18.729989   21.345818 C.3        1 MOL1        -0.1880
      14    H7      21.738229   19.426804   20.950933 H          1 MOL1         0.0742
      15    H8      21.537576   17.828380   21.645929 H          1 MOL1         0.0742
      16    C6      20.004514   18.357990   20.207275 C.3        1 MOL1        -0.1856
      17    H9      19.307443   17.580400   20.546293 H          1 MOL1         0.0742
      18    H10     20.578216   17.911743   19.383400 H          1 MOL1         0.0742
      19    C7      19.212583   19.566353   19.662792 C.3        1 MOL1        -0.2871
      20    H11     18.602903   19.268930   18.799883 H          1 MOL1         0.0754
      21    H12     19.890486   20.366720   19.338969 H          1 MOL1         0.0754
      22    H13     18.535316   19.974475   20.423568 H          1 MOL1         0.0754
@<TRIPOS>BOND
    1     1     2    1
    2     1     3    2
    3     1     4    1
    4     4     5    1
    5     4     6    1
    6     4     7    1
    7     7     8    1
    8     7     9    1
    9     7    10    1
   10    10    11    1
   11    10    12    1
   12    10    13    1
   13    13    14    1
   14    13    15    1
   15    13    16    1
   16    16    17    1
   17    16    18    1
   18    16    19    1
   19    19    20    1
   20    19    21    1
   21    19    22    1
@<TRIPOS>SUBSTRUCTURE
       1 MOL1            1 RESIDUE      1      MOL     
@<SCITEGIC>MOL_PROPERTY
VM2 Rank
SciTegic.value.IntegerValue
31

@<SCITEGIC>MOL_PROPERTY
Conf_Id
SciTegic.value.IntegerValue
317

@<SCITEGIC>MOL_PROPERTY
Probability
SciTegic.value.DoubleValue
0.11

@<SCITEGIC>MOL_PROPERTY
Sum Probability
SciTegic.value.DoubleValue
98.73

@<SCITEGIC>MOL_PROPERTY
Delta G
SciTegic.value.DoubleValue
3.403

@<SCITEGIC>MOL_PROPERTY
G
SciTegic.value.DoubleValue
-13.596

@<SCITEGIC>MOL_PROPERTY
E
SciTegic.value.DoubleValue
-33.890

@<SCITEGIC>MOL_PROPERTY
-TS
SciTegic.value.DoubleValue
20.294

@<SCITEGIC>MOL_PROPERTY
U+W
SciTegic.value.DoubleValue
-51.774

@<SCITEGIC>MOL_PROPERTY
U
SciTegic.value.DoubleValue
9.546

@<SCITEGIC>MOL_PROPERTY
W
SciTegic.value.DoubleValue
-61.321

@<SCITEGIC>MOL_PROPERTY
W(PB)
SciTegic.value.DoubleValue
-63.553

@<SCITEGIC>MOL_PROPERTY
W(SA)
SciTegic.value.DoubleValue
2.233

@<SCITEGIC>MOL_PROPERTY
Valence
SciTegic.value.DoubleValue
8.350

@<SCITEGIC>MOL_PROPERTY
Coulomb
SciTegic.value.DoubleValue
0.448

@<SCITEGIC>MOL_PROPERTY
VdW
SciTegic.value.DoubleValue
0.749

@<SCITEGIC>MOL_PROPERTY
VdW6
SciTegic.value.DoubleValue
-8.872

@<SCITEGIC>MOL_PROPERTY
VdW12
SciTegic.value.DoubleValue
9.620

@<SCITEGIC>MOL_PROPERTY
Bond
SciTegic.value.DoubleValue
0.198

@<SCITEGIC>MOL_PROPERTY
Angle
SciTegic.value.DoubleValue
3.089

@<SCITEGIC>MOL_PROPERTY
Pdih
SciTegic.value.DoubleValue
5.062

@<SCITEGIC>MOL_PROPERTY
Idih
SciTegic.value.DoubleValue
0.001

@<SCITEGIC>MOL_PROPERTY
Tether
SciTegic.value.DoubleValue
0.000

@<TRIPOS>MOLECULE
guest-s21_vm2.mol2 : vm2 ligand conformer 32
          22          21           1
SMALL
USER_CHARGES
 
@<TRIPOS>ATOM
       1    C1      19.768388   19.025162   25.729995 C.2        1 MOL1         0.6145
       2    O1      19.982235   20.097374   26.260679 O.co2      1 MOL1        -0.6735
       3    O2      20.315229   17.991167   26.059747 O.co2      1 MOL1        -0.6735
       4    C2      18.740739   18.972754   24.602838 C.3        1 MOL1        -0.1985
       5    H1      17.862628   19.539383   24.934236 H          1 MOL1         0.0740
       6    H2      18.416746   17.933193   24.471664 H          1 MOL1         0.0740
       7    C3      19.249417   19.548438   23.255502 C.3        1 MOL1        -0.1882
       8    H3      18.401797   19.608061   22.560893 H          1 MOL1         0.0742
       9    H4      19.607484   20.575683   23.409790 H          1 MOL1         0.0742
      10    C4      20.373453   18.689191   22.628710 C.3        1 MOL1        -0.1880
      11    H5      20.003150   17.672807   22.441580 H          1 MOL1         0.0742
      12    H6      21.192712   18.583852   23.352926 H          1 MOL1         0.0742
      13    C5      20.956045   19.289454   21.324375 C.3        1 MOL1        -0.1880
      14    H7      21.405409   20.265561   21.552405 H          1 MOL1         0.0742
      15    H8      21.780276   18.649700   20.980831 H          1 MOL1         0.0742
      16    C6      19.944469   19.465170   20.164771 C.3        1 MOL1        -0.1856
      17    H9      20.470063   19.906566   19.306890 H          1 MOL1         0.0742
      18    H10     19.166049   20.186498   20.446256 H          1 MOL1         0.0742
      19    C7      19.290025   18.140291   19.717384 C.3        1 MOL1        -0.2871
      20    H11     18.657621   17.720663   20.509855 H          1 MOL1         0.0754
      21    H12     20.051792   17.395483   19.452860 H          1 MOL1         0.0754
      22    H13     18.655423   18.303334   18.836772 H          1 MOL1         0.0754
@<TRIPOS>BOND
    1     1     2    1
    2     1     3    2
    3     1     4    1
    4     4     5    1
    5     4     6    1
    6     4     7    1
    7     7     8    1
    8     7     9    1
    9     7    10    1
   10    10    11    1
   11    10    12    1
   12    10    13    1
   13    13    14    1
   14    13    15    1
   15    13    16    1
   16    16    17    1
   17    16    18    1
   18    16    19    1
   19    19    20    1
   20    19    21    1
   21    19    22    1
@<TRIPOS>SUBSTRUCTURE
       1 MOL1            1 RESIDUE      1      MOL     
@<SCITEGIC>MOL_PROPERTY
VM2 Rank
SciTegic.value.IntegerValue
32

@<SCITEGIC>MOL_PROPERTY
Conf_Id
SciTegic.value.IntegerValue
159

@<SCITEGIC>MOL_PROPERTY
Probability
SciTegic.value.DoubleValue
0.11

@<SCITEGIC>MOL_PROPERTY
Sum Probability
SciTegic.value.DoubleValue
98.84

@<SCITEGIC>MOL_PROPERTY
Delta G
SciTegic.value.DoubleValue
3.409

@<SCITEGIC>MOL_PROPERTY
G
SciTegic.value.DoubleValue
-13.590

@<SCITEGIC>MOL_PROPERTY
E
SciTegic.value.DoubleValue
-33.883

@<SCITEGIC>MOL_PROPERTY
-TS
SciTegic.value.DoubleValue
20.293

@<SCITEGIC>MOL_PROPERTY
U+W
SciTegic.value.DoubleValue
-51.768

@<SCITEGIC>MOL_PROPERTY
U
SciTegic.value.DoubleValue
9.546

@<SCITEGIC>MOL_PROPERTY
W
SciTegic.value.DoubleValue
-61.314

@<SCITEGIC>MOL_PROPERTY
W(PB)
SciTegic.value.DoubleValue
-63.555

@<SCITEGIC>MOL_PROPERTY
W(SA)
SciTegic.value.DoubleValue
2.241

@<SCITEGIC>MOL_PROPERTY
Valence
SciTegic.value.DoubleValue
8.350

@<SCITEGIC>MOL_PROPERTY
Coulomb
SciTegic.value.DoubleValue
0.448

@<SCITEGIC>MOL_PROPERTY
VdW
SciTegic.value.DoubleValue
0.749

@<SCITEGIC>MOL_PROPERTY
VdW6
SciTegic.value.DoubleValue
-8.871

@<SCITEGIC>MOL_PROPERTY
VdW12
SciTegic.value.DoubleValue
9.620

@<SCITEGIC>MOL_PROPERTY
Bond
SciTegic.value.DoubleValue
0.198

@<SCITEGIC>MOL_PROPERTY
Angle
SciTegic.value.DoubleValue
3.089

@<SCITEGIC>MOL_PROPERTY
Pdih
SciTegic.value.DoubleValue
5.062

@<SCITEGIC>MOL_PROPERTY
Idih
SciTegic.value.DoubleValue
0.001

@<SCITEGIC>MOL_PROPERTY
Tether
SciTegic.value.DoubleValue
0.000

@<TRIPOS>MOLECULE
guest-s21_vm2.mol2 : vm2 ligand conformer 33
          22          21           1
SMALL
USER_CHARGES
 
@<TRIPOS>ATOM
       1    C1      20.147148   19.203762   25.460449 C.2        1 MOL1         0.6145
       2    O1      20.729878   20.266744   25.546677 O.co2      1 MOL1        -0.6735
       3    O2      20.616376   18.147360   25.835683 O.co2      1 MOL1        -0.6735
       4    C2      18.738211   19.201623   24.873687 C.3        1 MOL1        -0.1985
       5    H1      18.192643   20.037957   25.326338 H          1 MOL1         0.0740
       6    H2      18.228985   18.282768   25.188623 H          1 MOL1         0.0740
       7    C3      18.699810   19.333773   23.329097 C.3        1 MOL1        -0.1882
       8    H3      17.657472   19.457610   23.006124 H          1 MOL1         0.0742
       9    H4      19.234564   20.247417   23.037148 H          1 MOL1         0.0742
      10    C4      19.313800   18.106481   22.614438 C.3        1 MOL1        -0.1880
      11    H5      18.820764   17.196190   22.981709 H          1 MOL1         0.0742
      12    H6      20.373050   18.006995   22.886158 H          1 MOL1         0.0742
      13    C5      19.168450   18.153012   21.072561 C.3        1 MOL1        -0.1880
      14    H7      19.585390   17.227822   20.652040 H          1 MOL1         0.0742
      15    H8      18.100516   18.148333   20.815356 H          1 MOL1         0.0742
      16    C6      19.842309   19.364008   20.381053 C.3        1 MOL1        -0.1856
      17    H9      19.365879   20.298654   20.705183 H          1 MOL1         0.0742
      18    H10     19.664508   19.292368   19.299263 H          1 MOL1         0.0742
      19    C7      21.364020   19.442236   20.630356 C.3        1 MOL1        -0.2871
      20    H11     21.584931   19.631642   21.688652 H          1 MOL1         0.0754
      21    H12     21.807668   20.259098   20.046707 H          1 MOL1         0.0754
      22    H13     21.859033   18.507657   20.336293 H          1 MOL1         0.0754
@<TRIPOS>BOND
    1     1     2    1
    2     1     3    2
    3     1     4    1
    4     4     5    1
    5     4     6    1
    6     4     7    1
    7     7     8    1
    8     7     9    1
    9     7    10    1
   10    10    11    1
   11    10    12    1
   12    10    13    1
   13    13    14    1
   14    13    15    1
   15    13    16    1
   16    16    17    1
   17    16    18    1
   18    16    19    1
   19    19    20    1
   20    19    21    1
   21    19    22    1
@<TRIPOS>SUBSTRUCTURE
       1 MOL1            1 RESIDUE      1      MOL     
@<SCITEGIC>MOL_PROPERTY
VM2 Rank
SciTegic.value.IntegerValue
33

@<SCITEGIC>MOL_PROPERTY
Conf_Id
SciTegic.value.IntegerValue
342

@<SCITEGIC>MOL_PROPERTY
Probability
SciTegic.value.DoubleValue
0.08

@<SCITEGIC>MOL_PROPERTY
Sum Probability
SciTegic.value.DoubleValue
98.92

@<SCITEGIC>MOL_PROPERTY
Delta G
SciTegic.value.DoubleValue
3.578

@<SCITEGIC>MOL_PROPERTY
G
SciTegic.value.DoubleValue
-13.421

@<SCITEGIC>MOL_PROPERTY
E
SciTegic.value.DoubleValue
-33.724

@<SCITEGIC>MOL_PROPERTY
-TS
SciTegic.value.DoubleValue
20.303

@<SCITEGIC>MOL_PROPERTY
U+W
SciTegic.value.DoubleValue
-51.609

@<SCITEGIC>MOL_PROPERTY
U
SciTegic.value.DoubleValue
10.394

@<SCITEGIC>MOL_PROPERTY
W
SciTegic.value.DoubleValue
-62.003

@<SCITEGIC>MOL_PROPERTY
W(PB)
SciTegic.value.DoubleValue
-64.205

@<SCITEGIC>MOL_PROPERTY
W(SA)
SciTegic.value.DoubleValue
2.203

@<SCITEGIC>MOL_PROPERTY
Valence
SciTegic.value.DoubleValue
8.284

@<SCITEGIC>MOL_PROPERTY
Coulomb
SciTegic.value.DoubleValue
1.521

@<SCITEGIC>MOL_PROPERTY
VdW
SciTegic.value.DoubleValue
0.589

@<SCITEGIC>MOL_PROPERTY
VdW6
SciTegic.value.DoubleValue
-9.071

@<SCITEGIC>MOL_PROPERTY
VdW12
SciTegic.value.DoubleValue
9.660

@<SCITEGIC>MOL_PROPERTY
Bond
SciTegic.value.DoubleValue
0.194

@<SCITEGIC>MOL_PROPERTY
Angle
SciTegic.value.DoubleValue
3.031

@<SCITEGIC>MOL_PROPERTY
Pdih
SciTegic.value.DoubleValue
5.059

@<SCITEGIC>MOL_PROPERTY
Idih
SciTegic.value.DoubleValue
0.001

@<SCITEGIC>MOL_PROPERTY
Tether
SciTegic.value.DoubleValue
0.000

@<TRIPOS>MOLECULE
guest-s21_vm2.mol2 : vm2 ligand conformer 34
          22          21           1
SMALL
USER_CHARGES
 
@<TRIPOS>ATOM
       1    C1      19.689105   19.424422   25.445896 C.2        1 MOL1         0.6145
       2    O1      20.152815   20.544743   25.528324 O.co2      1 MOL1        -0.6735
       3    O2      18.552693   19.141509   25.770690 O.co2      1 MOL1        -0.6735
       4    C2      20.593886   18.307654   24.932485 C.3        1 MOL1        -0.1985
       5    H1      20.176457   17.344582   25.250344 H          1 MOL1         0.0740
       6    H2      21.563420   18.414107   25.433144 H          1 MOL1         0.0740
       7    C3      20.800419   18.321780   23.395657 C.3        1 MOL1        -0.1882
       8    H3      21.196798   19.302089   23.099317 H          1 MOL1         0.0742
       9    H4      21.562012   17.576499   23.129859 H          1 MOL1         0.0742
      10    C4      19.496292   18.018618   22.620211 C.3        1 MOL1        -0.1880
      11    H5      18.745870   18.791069   22.834520 H          1 MOL1         0.0742
      12    H6      19.072679   17.074896   22.989729 H          1 MOL1         0.0742
      13    C5      19.702316   17.895772   21.089478 C.3        1 MOL1        -0.1880
      14    H7      20.375937   17.051909   20.887524 H          1 MOL1         0.0742
      15    H8      18.741665   17.634362   20.625292 H          1 MOL1         0.0742
      16    C6      20.265220   19.160201   20.394400 C.3        1 MOL1        -0.1856
      17    H9      20.375482   18.949723   19.321761 H          1 MOL1         0.0742
      18    H10     21.275182   19.378674   20.765690 H          1 MOL1         0.0742
      19    C7      19.367254   20.404302   20.566860 C.3        1 MOL1        -0.2871
      20    H11     18.344253   20.201136   20.224602 H          1 MOL1         0.0754
      21    H12     19.759765   21.245793   19.981573 H          1 MOL1         0.0754
      22    H13     19.323396   20.721294   21.616745 H          1 MOL1         0.0754
@<TRIPOS>BOND
    1     1     2    1
    2     1     3    2
    3     1     4    1
    4     4     5    1
    5     4     6    1
    6     4     7    1
    7     7     8    1
    8     7     9    1
    9     7    10    1
   10    10    11    1
   11    10    12    1
   12    10    13    1
   13    13    14    1
   14    13    15    1
   15    13    16    1
   16    16    17    1
   17    16    18    1
   18    16    19    1
   19    19    20    1
   20    19    21    1
   21    19    22    1
@<TRIPOS>SUBSTRUCTURE
       1 MOL1            1 RESIDUE      1      MOL     
@<SCITEGIC>MOL_PROPERTY
VM2 Rank
SciTegic.value.IntegerValue
34

@<SCITEGIC>MOL_PROPERTY
Conf_Id
SciTegic.value.IntegerValue
67

@<SCITEGIC>MOL_PROPERTY
Probability
SciTegic.value.DoubleValue
0.08

@<SCITEGIC>MOL_PROPERTY
Sum Probability
SciTegic.value.DoubleValue
99.00

@<SCITEGIC>MOL_PROPERTY
Delta G
SciTegic.value.DoubleValue
3.580

@<SCITEGIC>MOL_PROPERTY
G
SciTegic.value.DoubleValue
-13.419

@<SCITEGIC>MOL_PROPERTY
E
SciTegic.value.DoubleValue
-33.722

@<SCITEGIC>MOL_PROPERTY
-TS
SciTegic.value.DoubleValue
20.303

@<SCITEGIC>MOL_PROPERTY
U+W
SciTegic.value.DoubleValue
-51.606

@<SCITEGIC>MOL_PROPERTY
U
SciTegic.value.DoubleValue
10.393

@<SCITEGIC>MOL_PROPERTY
W
SciTegic.value.DoubleValue
-62.000

@<SCITEGIC>MOL_PROPERTY
W(PB)
SciTegic.value.DoubleValue
-64.214

@<SCITEGIC>MOL_PROPERTY
W(SA)
SciTegic.value.DoubleValue
2.214

@<SCITEGIC>MOL_PROPERTY
Valence
SciTegic.value.DoubleValue
8.284

@<SCITEGIC>MOL_PROPERTY
Coulomb
SciTegic.value.DoubleValue
1.520

@<SCITEGIC>MOL_PROPERTY
VdW
SciTegic.value.DoubleValue
0.589

@<SCITEGIC>MOL_PROPERTY
VdW6
SciTegic.value.DoubleValue
-9.071

@<SCITEGIC>MOL_PROPERTY
VdW12
SciTegic.value.DoubleValue
9.660

@<SCITEGIC>MOL_PROPERTY
Bond
SciTegic.value.DoubleValue
0.194

@<SCITEGIC>MOL_PROPERTY
Angle
SciTegic.value.DoubleValue
3.031

@<SCITEGIC>MOL_PROPERTY
Pdih
SciTegic.value.DoubleValue
5.059

@<SCITEGIC>MOL_PROPERTY
Idih
SciTegic.value.DoubleValue
0.001

@<SCITEGIC>MOL_PROPERTY
Tether
SciTegic.value.DoubleValue
0.000

@<TRIPOS>MOLECULE
guest-s21_vm2.mol2 : vm2 ligand conformer 35
          22          21           1
SMALL
USER_CHARGES
 
@<TRIPOS>ATOM
       1    C1      19.908036   18.805666   25.449774 C.2        1 MOL1         0.6145
       2    O1      19.749568   19.564263   26.386155 O.co2      1 MOL1        -0.6735
       3    O2      20.854062   18.049255   25.351002 O.co2      1 MOL1        -0.6735
       4    C2      18.844807   18.783138   24.355152 C.3        1 MOL1        -0.1985
       5    H1      17.871106   18.680963   24.848151 H          1 MOL1         0.0740
       6    H2      18.982523   17.879894   23.749746 H          1 MOL1         0.0740
       7    C3      18.834675   20.048342   23.454409 C.3        1 MOL1        -0.1882
       8    H3      17.998075   19.981990   22.746951 H          1 MOL1         0.0742
       9    H4      18.628236   20.925719   24.082709 H          1 MOL1         0.0742
      10    C4      20.155293   20.293705   22.679660 C.3        1 MOL1        -0.1880
      11    H5      20.960709   20.492186   23.400065 H          1 MOL1         0.0742
      12    H6      20.050035   21.211334   22.085131 H          1 MOL1         0.0742
      13    C5      20.599542   19.139642   21.746405 C.3        1 MOL1        -0.1880
      14    H7      21.548434   19.425032   21.272358 H          1 MOL1         0.0742
      15    H8      20.816145   18.241305   22.339882 H          1 MOL1         0.0742
      16    C6      19.569117   18.804526   20.644687 C.3        1 MOL1        -0.1856
      17    H9      19.320866   19.714034   20.080570 H          1 MOL1         0.0742
      18    H10     18.636757   18.443285   21.098292 H          1 MOL1         0.0742
      19    C7      20.104901   17.730464   19.676757 C.3        1 MOL1        -0.2871
      20    H11     21.019329   18.073823   19.175535 H          1 MOL1         0.0754
      21    H12     19.360450   17.500701   18.903452 H          1 MOL1         0.0754
      22    H13     20.335845   16.800308   20.212348 H          1 MOL1         0.0754
@<TRIPOS>BOND
    1     1     2    1
    2     1     3    2
    3     1     4    1
    4     4     5    1
    5     4     6    1
    6     4     7    1
    7     7     8    1
    8     7     9    1
    9     7    10    1
   10    10    11    1
   11    10    12    1
   12    10    13    1
   13    13    14    1
   14    13    15    1
   15    13    16    1
   16    16    17    1
   17    16    18    1
   18    16    19    1
   19    19    20    1
   20    19    21    1
   21    19    22    1
@<TRIPOS>SUBSTRUCTURE
       1 MOL1            1 RESIDUE      1      MOL     
@<SCITEGIC>MOL_PROPERTY
VM2 Rank
SciTegic.value.IntegerValue
35

@<SCITEGIC>MOL_PROPERTY
Conf_Id
SciTegic.value.IntegerValue
463

@<SCITEGIC>MOL_PROPERTY
Probability
SciTegic.value.DoubleValue
0.08

@<SCITEGIC>MOL_PROPERTY
Sum Probability
SciTegic.value.DoubleValue
99.07

@<SCITEGIC>MOL_PROPERTY
Delta G
SciTegic.value.DoubleValue
3.589

@<SCITEGIC>MOL_PROPERTY
G
SciTegic.value.DoubleValue
-13.409

@<SCITEGIC>MOL_PROPERTY
E
SciTegic.value.DoubleValue
-33.815

@<SCITEGIC>MOL_PROPERTY
-TS
SciTegic.value.DoubleValue
20.406

@<SCITEGIC>MOL_PROPERTY
U+W
SciTegic.value.DoubleValue
-51.700

@<SCITEGIC>MOL_PROPERTY
U
SciTegic.value.DoubleValue
10.054

@<SCITEGIC>MOL_PROPERTY
W
SciTegic.value.DoubleValue
-61.754

@<SCITEGIC>MOL_PROPERTY
W(PB)
SciTegic.value.DoubleValue
-63.978

@<SCITEGIC>MOL_PROPERTY
W(SA)
SciTegic.value.DoubleValue
2.224

@<SCITEGIC>MOL_PROPERTY
Valence
SciTegic.value.DoubleValue
8.321

@<SCITEGIC>MOL_PROPERTY
Coulomb
SciTegic.value.DoubleValue
1.289

@<SCITEGIC>MOL_PROPERTY
VdW
SciTegic.value.DoubleValue
0.445

@<SCITEGIC>MOL_PROPERTY
VdW6
SciTegic.value.DoubleValue
-9.398

@<SCITEGIC>MOL_PROPERTY
VdW12
SciTegic.value.DoubleValue
9.842

@<SCITEGIC>MOL_PROPERTY
Bond
SciTegic.value.DoubleValue
0.210

@<SCITEGIC>MOL_PROPERTY
Angle
SciTegic.value.DoubleValue
3.153

@<SCITEGIC>MOL_PROPERTY
Pdih
SciTegic.value.DoubleValue
4.957

@<SCITEGIC>MOL_PROPERTY
Idih
SciTegic.value.DoubleValue
0.001

@<SCITEGIC>MOL_PROPERTY
Tether
SciTegic.value.DoubleValue
0.000

@<TRIPOS>MOLECULE
guest-s21_vm2.mol2 : vm2 ligand conformer 36
          22          21           1
SMALL
USER_CHARGES
 
@<TRIPOS>ATOM
       1    C1      20.020882   18.947824   25.517304 C.2        1 MOL1         0.6145
       2    O1      20.377239   19.872518   26.221050 O.co2      1 MOL1        -0.6735
       3    O2      20.645263   17.911653   25.402135 O.co2      1 MOL1        -0.6735
       4    C2      18.702167   19.086060   24.761628 C.3        1 MOL1        -0.1985
       5    H1      17.945371   19.411418   25.484902 H          1 MOL1         0.0740
       6    H2      18.390727   18.094688   24.413928 H          1 MOL1         0.0740
       7    C3      18.749001   20.093947   23.580477 C.3        1 MOL1        -0.1882
       8    H3      17.748835   20.172080   23.133379 H          1 MOL1         0.0742
       9    H4      18.986018   21.090131   23.978933 H          1 MOL1         0.0742
      10    C4      19.775628   19.744455   22.474755 C.3        1 MOL1        -0.1880
      11    H5      20.784795   19.698815   22.906522 H          1 MOL1         0.0742
      12    H6      19.786105   20.568430   21.750220 H          1 MOL1         0.0742
      13    C5      19.464010   18.416619   21.741821 C.3        1 MOL1        -0.1880
      14    H7      19.478950   17.591291   22.465381 H          1 MOL1         0.0742
      15    H8      18.448277   18.450847   21.325159 H          1 MOL1         0.0742
      16    C6      20.473762   18.083397   20.618717 C.3        1 MOL1        -0.1856
      17    H9      20.268133   17.068435   20.251640 H          1 MOL1         0.0742
      18    H10     21.492453   18.063550   21.030120 H          1 MOL1         0.0742
      19    C7      20.412048   19.062527   19.426114 C.3        1 MOL1        -0.2871
      20    H11     20.729267   20.071398   19.717491 H          1 MOL1         0.0754
      21    H12     19.393685   19.124522   19.020910 H          1 MOL1         0.0754
      22    H13     21.076478   18.726441   18.619593 H          1 MOL1         0.0754
@<TRIPOS>BOND
    1     1     2    1
    2     1     3    2
    3     1     4    1
    4     4     5    1
    5     4     6    1
    6     4     7    1
    7     7     8    1
    8     7     9    1
    9     7    10    1
   10    10    11    1
   11    10    12    1
   12    10    13    1
   13    13    14    1
   14    13    15    1
   15    13    16    1
   16    16    17    1
   17    16    18    1
   18    16    19    1
   19    19    20    1
   20    19    21    1
   21    19    22    1
@<TRIPOS>SUBSTRUCTURE
       1 MOL1            1 RESIDUE      1      MOL     
@<SCITEGIC>MOL_PROPERTY
VM2 Rank
SciTegic.value.IntegerValue
36

@<SCITEGIC>MOL_PROPERTY
Conf_Id
SciTegic.value.IntegerValue
264

@<SCITEGIC>MOL_PROPERTY
Probability
SciTegic.value.DoubleValue
0.08

@<SCITEGIC>MOL_PROPERTY
Sum Probability
SciTegic.value.DoubleValue
99.15

@<SCITEGIC>MOL_PROPERTY
Delta G
SciTegic.value.DoubleValue
3.609

@<SCITEGIC>MOL_PROPERTY
G
SciTegic.value.DoubleValue
-13.390

@<SCITEGIC>MOL_PROPERTY
E
SciTegic.value.DoubleValue
-33.472

@<SCITEGIC>MOL_PROPERTY
-TS
SciTegic.value.DoubleValue
20.082

@<SCITEGIC>MOL_PROPERTY
U+W
SciTegic.value.DoubleValue
-51.357

@<SCITEGIC>MOL_PROPERTY
U
SciTegic.value.DoubleValue
10.427

@<SCITEGIC>MOL_PROPERTY
W
SciTegic.value.DoubleValue
-61.784

@<SCITEGIC>MOL_PROPERTY
W(PB)
SciTegic.value.DoubleValue
-64.014

@<SCITEGIC>MOL_PROPERTY
W(SA)
SciTegic.value.DoubleValue
2.230

@<SCITEGIC>MOL_PROPERTY
Valence
SciTegic.value.DoubleValue
8.445

@<SCITEGIC>MOL_PROPERTY
Coulomb
SciTegic.value.DoubleValue
1.306

@<SCITEGIC>MOL_PROPERTY
VdW
SciTegic.value.DoubleValue
0.676

@<SCITEGIC>MOL_PROPERTY
VdW6
SciTegic.value.DoubleValue
-8.928

@<SCITEGIC>MOL_PROPERTY
VdW12
SciTegic.value.DoubleValue
9.604

@<SCITEGIC>MOL_PROPERTY
Bond
SciTegic.value.DoubleValue
0.209

@<SCITEGIC>MOL_PROPERTY
Angle
SciTegic.value.DoubleValue
3.066

@<SCITEGIC>MOL_PROPERTY
Pdih
SciTegic.value.DoubleValue
5.169

@<SCITEGIC>MOL_PROPERTY
Idih
SciTegic.value.DoubleValue
0.001

@<SCITEGIC>MOL_PROPERTY
Tether
SciTegic.value.DoubleValue
0.000

@<TRIPOS>MOLECULE
guest-s21_vm2.mol2 : vm2 ligand conformer 37
          22          21           1
SMALL
USER_CHARGES
 
@<TRIPOS>ATOM
       1    C1      19.672903   18.880442   25.513860 C.2        1 MOL1         0.6145
       2    O1      18.984262   19.602674   26.207733 O.co2      1 MOL1        -0.6735
       3    O2      19.482978   17.686439   25.391175 O.co2      1 MOL1        -0.6735
       4    C2      20.858350   19.503722   24.782151 C.3        1 MOL1        -0.1985
       5    H1      21.523742   18.701560   24.443774 H          1 MOL1         0.0740
       6    H2      21.425488   20.085501   25.518094 H          1 MOL1         0.0740
       7    C3      20.460411   20.425478   23.596758 C.3        1 MOL1        -0.1882
       8    H3      19.861460   21.259807   23.987242 H          1 MOL1         0.0742
       9    H4      21.367175   20.872823   23.167814 H          1 MOL1         0.0742
      10    C4      19.658883   19.722011   22.473628 C.3        1 MOL1        -0.1880
      11    H5      19.355220   20.485059   21.745933 H          1 MOL1         0.0742
      12    H6      18.731766   19.301785   22.886894 H          1 MOL1         0.0742
      13    C5      20.456790   18.608711   21.751581 C.3        1 MOL1        -0.1880
      14    H7      21.394116   19.020659   21.353825 H          1 MOL1         0.0742
      15    H8      20.737124   17.834806   22.477816 H          1 MOL1         0.0742
      16    C6      19.665300   17.926956   20.611076 C.3        1 MOL1        -0.1856
      17    H9      18.719841   17.527499   21.003402 H          1 MOL1         0.0742
      18    H10     20.241245   17.062997   20.251860 H          1 MOL1         0.0742
      19    C7      19.380123   18.862566   19.416038 C.3        1 MOL1        -0.2871
      20    H11     18.704474   19.679642   19.697524 H          1 MOL1         0.0754
      21    H12     18.903994   18.305827   18.598579 H          1 MOL1         0.0754
      22    H13     20.309479   19.300860   19.029656 H          1 MOL1         0.0754
@<TRIPOS>BOND
    1     1     2    1
    2     1     3    2
    3     1     4    1
    4     4     5    1
    5     4     6    1
    6     4     7    1
    7     7     8    1
    8     7     9    1
    9     7    10    1
   10    10    11    1
   11    10    12    1
   12    10    13    1
   13    13    14    1
   14    13    15    1
   15    13    16    1
   16    16    17    1
   17    16    18    1
   18    16    19    1
   19    19    20    1
   20    19    21    1
   21    19    22    1
@<TRIPOS>SUBSTRUCTURE
       1 MOL1            1 RESIDUE      1      MOL     
@<SCITEGIC>MOL_PROPERTY
VM2 Rank
SciTegic.value.IntegerValue
37

@<SCITEGIC>MOL_PROPERTY
Conf_Id
SciTegic.value.IntegerValue
247

@<SCITEGIC>MOL_PROPERTY
Probability
SciTegic.value.DoubleValue
0.07

@<SCITEGIC>MOL_PROPERTY
Sum Probability
SciTegic.value.DoubleValue
99.22

@<SCITEGIC>MOL_PROPERTY
Delta G
SciTegic.value.DoubleValue
3.612

@<SCITEGIC>MOL_PROPERTY
G
SciTegic.value.DoubleValue
-13.387

@<SCITEGIC>MOL_PROPERTY
E
SciTegic.value.DoubleValue
-33.469

@<SCITEGIC>MOL_PROPERTY
-TS
SciTegic.value.DoubleValue
20.082

@<SCITEGIC>MOL_PROPERTY
U+W
SciTegic.value.DoubleValue
-51.354

@<SCITEGIC>MOL_PROPERTY
U
SciTegic.value.DoubleValue
10.427

@<SCITEGIC>MOL_PROPERTY
W
SciTegic.value.DoubleValue
-61.781

@<SCITEGIC>MOL_PROPERTY
W(PB)
SciTegic.value.DoubleValue
-64.012

@<SCITEGIC>MOL_PROPERTY
W(SA)
SciTegic.value.DoubleValue
2.231

@<SCITEGIC>MOL_PROPERTY
Valence
SciTegic.value.DoubleValue
8.446

@<SCITEGIC>MOL_PROPERTY
Coulomb
SciTegic.value.DoubleValue
1.305

@<SCITEGIC>MOL_PROPERTY
VdW
SciTegic.value.DoubleValue
0.676

@<SCITEGIC>MOL_PROPERTY
VdW6
SciTegic.value.DoubleValue
-8.928

@<SCITEGIC>MOL_PROPERTY
VdW12
SciTegic.value.DoubleValue
9.604

@<SCITEGIC>MOL_PROPERTY
Bond
SciTegic.value.DoubleValue
0.209

@<SCITEGIC>MOL_PROPERTY
Angle
SciTegic.value.DoubleValue
3.066

@<SCITEGIC>MOL_PROPERTY
Pdih
SciTegic.value.DoubleValue
5.170

@<SCITEGIC>MOL_PROPERTY
Idih
SciTegic.value.DoubleValue
0.001

@<SCITEGIC>MOL_PROPERTY
Tether
SciTegic.value.DoubleValue
0.000

@<TRIPOS>MOLECULE
guest-s21_vm2.mol2 : vm2 ligand conformer 38
          22          21           1
SMALL
USER_CHARGES
 
@<TRIPOS>ATOM
       1    C1      20.142843   19.012327   25.441375 C.2        1 MOL1         0.6145
       2    O1      19.449748   19.300571   26.397370 O.co2      1 MOL1        -0.6735
       3    O2      20.768365   17.974064   25.354138 O.co2      1 MOL1        -0.6735
       4    C2      20.255436   20.023937   24.304220 C.3        1 MOL1        -0.1985
       5    H1      21.108587   19.749937   23.673039 H          1 MOL1         0.0740
       6    H2      20.500125   20.993563   24.753148 H          1 MOL1         0.0740
       7    C3      18.966148   20.163851   23.449625 C.3        1 MOL1        -0.1882
       8    H3      18.148277   20.503416   24.099971 H          1 MOL1         0.0742
       9    H4      19.109134   20.959150   22.706758 H          1 MOL1         0.0742
      10    C4      18.524149   18.858655   22.738588 C.3        1 MOL1        -0.1880
      11    H5      17.603782   19.059243   22.173544 H          1 MOL1         0.0742
      12    H6      18.254786   18.111622   23.497836 H          1 MOL1         0.0742
      13    C5      19.573666   18.237085   21.783420 C.3        1 MOL1        -0.1880
      14    H7      20.460817   17.928662   22.352610 H          1 MOL1         0.0742
      15    H8      19.151363   17.316159   21.359015 H          1 MOL1         0.0742
      16    C6      19.991279   19.175922   20.629279 C.3        1 MOL1        -0.1856
      17    H9      20.485923   20.069969   21.031217 H          1 MOL1         0.0742
      18    H10     19.098247   19.518277   20.088588 H          1 MOL1         0.0742
      19    C7      20.948366   18.472588   19.645984 C.3        1 MOL1        -0.2871
      20    H11     21.238699   19.153239   18.835170 H          1 MOL1         0.0754
      21    H12     20.471783   17.592278   19.195183 H          1 MOL1         0.0754
      22    H13     21.862923   18.143780   20.156720 H          1 MOL1         0.0754
@<TRIPOS>BOND
    1     1     2    1
    2     1     3    2
    3     1     4    1
    4     4     5    1
    5     4     6    1
    6     4     7    1
    7     7     8    1
    8     7     9    1
    9     7    10    1
   10    10    11    1
   11    10    12    1
   12    10    13    1
   13    13    14    1
   14    13    15    1
   15    13    16    1
   16    16    17    1
   17    16    18    1
   18    16    19    1
   19    19    20    1
   20    19    21    1
   21    19    22    1
@<TRIPOS>SUBSTRUCTURE
       1 MOL1            1 RESIDUE      1      MOL     
@<SCITEGIC>MOL_PROPERTY
VM2 Rank
SciTegic.value.IntegerValue
38

@<SCITEGIC>MOL_PROPERTY
Conf_Id
SciTegic.value.IntegerValue
115

@<SCITEGIC>MOL_PROPERTY
Probability
SciTegic.value.DoubleValue
0.07

@<SCITEGIC>MOL_PROPERTY
Sum Probability
SciTegic.value.DoubleValue
99.30

@<SCITEGIC>MOL_PROPERTY
Delta G
SciTegic.value.DoubleValue
3.617

@<SCITEGIC>MOL_PROPERTY
G
SciTegic.value.DoubleValue
-13.381

@<SCITEGIC>MOL_PROPERTY
E
SciTegic.value.DoubleValue
-33.787

@<SCITEGIC>MOL_PROPERTY
-TS
SciTegic.value.DoubleValue
20.405

@<SCITEGIC>MOL_PROPERTY
U+W
SciTegic.value.DoubleValue
-51.672

@<SCITEGIC>MOL_PROPERTY
U
SciTegic.value.DoubleValue
10.053

@<SCITEGIC>MOL_PROPERTY
W
SciTegic.value.DoubleValue
-61.725

@<SCITEGIC>MOL_PROPERTY
W(PB)
SciTegic.value.DoubleValue
-63.943

@<SCITEGIC>MOL_PROPERTY
W(SA)
SciTegic.value.DoubleValue
2.217

@<SCITEGIC>MOL_PROPERTY
Valence
SciTegic.value.DoubleValue
8.321

@<SCITEGIC>MOL_PROPERTY
Coulomb
SciTegic.value.DoubleValue
1.288

@<SCITEGIC>MOL_PROPERTY
VdW
SciTegic.value.DoubleValue
0.445

@<SCITEGIC>MOL_PROPERTY
VdW6
SciTegic.value.DoubleValue
-9.397

@<SCITEGIC>MOL_PROPERTY
VdW12
SciTegic.value.DoubleValue
9.842

@<SCITEGIC>MOL_PROPERTY
Bond
SciTegic.value.DoubleValue
0.210

@<SCITEGIC>MOL_PROPERTY
Angle
SciTegic.value.DoubleValue
3.152

@<SCITEGIC>MOL_PROPERTY
Pdih
SciTegic.value.DoubleValue
4.957

@<SCITEGIC>MOL_PROPERTY
Idih
SciTegic.value.DoubleValue
0.001

@<SCITEGIC>MOL_PROPERTY
Tether
SciTegic.value.DoubleValue
0.000

@<TRIPOS>MOLECULE
guest-s21_vm2.mol2 : vm2 ligand conformer 39
          22          21           1
SMALL
USER_CHARGES
 
@<TRIPOS>ATOM
       1    C1      19.561345   19.455251   25.632705 C.2        1 MOL1         0.6145
       2    O1      20.202597   20.441063   25.938549 O.co2      1 MOL1        -0.6735
       3    O2      18.972401   18.759901   26.436580 O.co2      1 MOL1        -0.6735
       4    C2      19.511586   19.055570   24.162404 C.3        1 MOL1        -0.1985
       5    H1      19.536174   19.975847   23.568085 H          1 MOL1         0.0740
       6    H2      18.548709   18.565827   23.974518 H          1 MOL1         0.0740
       7    C3      20.677727   18.120049   23.754902 C.3        1 MOL1        -0.1882
       8    H3      21.629437   18.655944   23.874555 H          1 MOL1         0.0742
       9    H4      20.711370   17.274016   24.455273 H          1 MOL1         0.0742
      10    C4      20.574282   17.560808   22.313645 C.3        1 MOL1        -0.1880
      11    H5      19.673243   16.940311   22.213309 H          1 MOL1         0.0742
      12    H6      21.423280   16.880368   22.161494 H          1 MOL1         0.0742
      13    C5      20.612839   18.636955   21.199136 C.3        1 MOL1        -0.1880
      14    H7      21.176949   19.515213   21.541778 H          1 MOL1         0.0742
      15    H8      21.169360   18.231529   20.343036 H          1 MOL1         0.0742
      16    C6      19.209647   19.057367   20.704104 C.3        1 MOL1        -0.1856
      17    H9      18.606125   19.442267   21.534754 H          1 MOL1         0.0742
      18    H10     18.679903   18.178400   20.311698 H          1 MOL1         0.0742
      19    C7      19.297577   20.132035   19.601974 C.3        1 MOL1        -0.2871
      20    H11     18.294730   20.414598   19.256304 H          1 MOL1         0.0754
      21    H12     19.862800   19.762277   18.736451 H          1 MOL1         0.0754
      22    H13     19.794830   21.036862   19.975320 H          1 MOL1         0.0754
@<TRIPOS>BOND
    1     1     2    1
    2     1     3    2
    3     1     4    1
    4     4     5    1
    5     4     6    1
    6     4     7    1
    7     7     8    1
    8     7     9    1
    9     7    10    1
   10    10    11    1
   11    10    12    1
   12    10    13    1
   13    13    14    1
   14    13    15    1
   15    13    16    1
   16    16    17    1
   17    16    18    1
   18    16    19    1
   19    19    20    1
   20    19    21    1
   21    19    22    1
@<TRIPOS>SUBSTRUCTURE
       1 MOL1            1 RESIDUE      1      MOL     
@<SCITEGIC>MOL_PROPERTY
VM2 Rank
SciTegic.value.IntegerValue
39

@<SCITEGIC>MOL_PROPERTY
Conf_Id
SciTegic.value.IntegerValue
160

@<SCITEGIC>MOL_PROPERTY
Probability
SciTegic.value.DoubleValue
0.06

@<SCITEGIC>MOL_PROPERTY
Sum Probability
SciTegic.value.DoubleValue
99.36

@<SCITEGIC>MOL_PROPERTY
Delta G
SciTegic.value.DoubleValue
3.779

@<SCITEGIC>MOL_PROPERTY
G
SciTegic.value.DoubleValue
-13.220

@<SCITEGIC>MOL_PROPERTY
E
SciTegic.value.DoubleValue
-33.159

@<SCITEGIC>MOL_PROPERTY
-TS
SciTegic.value.DoubleValue
19.939

@<SCITEGIC>MOL_PROPERTY
U+W
SciTegic.value.DoubleValue
-51.044

@<SCITEGIC>MOL_PROPERTY
U
SciTegic.value.DoubleValue
10.045

@<SCITEGIC>MOL_PROPERTY
W
SciTegic.value.DoubleValue
-61.089

@<SCITEGIC>MOL_PROPERTY
W(PB)
SciTegic.value.DoubleValue
-63.359

@<SCITEGIC>MOL_PROPERTY
W(SA)
SciTegic.value.DoubleValue
2.270

@<SCITEGIC>MOL_PROPERTY
Valence
SciTegic.value.DoubleValue
10.100

@<SCITEGIC>MOL_PROPERTY
Coulomb
SciTegic.value.DoubleValue
-0.883

@<SCITEGIC>MOL_PROPERTY
VdW
SciTegic.value.DoubleValue
0.828

@<SCITEGIC>MOL_PROPERTY
VdW6
SciTegic.value.DoubleValue
-8.177

@<SCITEGIC>MOL_PROPERTY
VdW12
SciTegic.value.DoubleValue
9.005

@<SCITEGIC>MOL_PROPERTY
Bond
SciTegic.value.DoubleValue
0.182

@<SCITEGIC>MOL_PROPERTY
Angle
SciTegic.value.DoubleValue
2.988

@<SCITEGIC>MOL_PROPERTY
Pdih
SciTegic.value.DoubleValue
6.930

@<SCITEGIC>MOL_PROPERTY
Idih
SciTegic.value.DoubleValue
0.001

@<SCITEGIC>MOL_PROPERTY
Tether
SciTegic.value.DoubleValue
0.000

@<TRIPOS>MOLECULE
guest-s21_vm2.mol2 : vm2 ligand conformer 40
          22          21           1
SMALL
USER_CHARGES
 
@<TRIPOS>ATOM
       1    C1      20.053404   18.786922   25.343626 C.2        1 MOL1         0.6145
       2    O1      19.166644   18.478590   26.115642 O.co2      1 MOL1        -0.6735
       3    O2      20.981548   18.055675   25.059853 O.co2      1 MOL1        -0.6735
       4    C2      20.015943   20.182063   24.725749 C.3        1 MOL1        -0.1985
       5    H1      20.990953   20.391062   24.270951 H          1 MOL1         0.0740
       6    H2      19.896658   20.898420   25.546874 H          1 MOL1         0.0740
       7    C3      18.874279   20.389729   23.693187 C.3        1 MOL1        -0.1882
       8    H3      17.910014   20.239266   24.198027 H          1 MOL1         0.0742
       9    H4      18.882994   21.433647   23.351913 H          1 MOL1         0.0742
      10    C4      18.945773   19.450641   22.464165 C.3        1 MOL1        -0.1880
      11    H5      18.063872   19.631851   21.834961 H          1 MOL1         0.0742
      12    H6      18.879327   18.407154   22.799566 H          1 MOL1         0.0742
      13    C5      20.223679   19.650342   21.613686 C.3        1 MOL1        -0.1880
      14    H7      20.349365   20.720242   21.399171 H          1 MOL1         0.0742
      15    H8      21.106713   19.338513   22.187413 H          1 MOL1         0.0742
      16    C6      20.192955   18.879106   20.273689 C.3        1 MOL1        -0.1856
      17    H9      21.082625   19.151450   19.689351 H          1 MOL1         0.0742
      18    H10     19.323515   19.196953   19.681871 H          1 MOL1         0.0742
      19    C7      20.165773   17.345933   20.454402 C.3        1 MOL1        -0.2871
      20    H11     21.009580   17.008607   21.070531 H          1 MOL1         0.0754
      21    H12     20.234001   16.842608   19.481354 H          1 MOL1         0.0754
      22    H13     19.236208   17.016499   20.935273 H          1 MOL1         0.0754
@<TRIPOS>BOND
    1     1     2    1
    2     1     3    2
    3     1     4    1
    4     4     5    1
    5     4     6    1
    6     4     7    1
    7     7     8    1
    8     7     9    1
    9     7    10    1
   10    10    11    1
   11    10    12    1
   12    10    13    1
   13    13    14    1
   14    13    15    1
   15    13    16    1
   16    16    17    1
   17    16    18    1
   18    16    19    1
   19    19    20    1
   20    19    21    1
   21    19    22    1
@<TRIPOS>SUBSTRUCTURE
       1 MOL1            1 RESIDUE      1      MOL     
@<SCITEGIC>MOL_PROPERTY
VM2 Rank
SciTegic.value.IntegerValue
40

@<SCITEGIC>MOL_PROPERTY
Conf_Id
SciTegic.value.IntegerValue
573

@<SCITEGIC>MOL_PROPERTY
Probability
SciTegic.value.DoubleValue
0.06

@<SCITEGIC>MOL_PROPERTY
Sum Probability
SciTegic.value.DoubleValue
99.41

@<SCITEGIC>MOL_PROPERTY
Delta G
SciTegic.value.DoubleValue
3.789

@<SCITEGIC>MOL_PROPERTY
G
SciTegic.value.DoubleValue
-13.209

@<SCITEGIC>MOL_PROPERTY
E
SciTegic.value.DoubleValue
-33.371

@<SCITEGIC>MOL_PROPERTY
-TS
SciTegic.value.DoubleValue
20.162

@<SCITEGIC>MOL_PROPERTY
U+W
SciTegic.value.DoubleValue
-51.256

@<SCITEGIC>MOL_PROPERTY
U
SciTegic.value.DoubleValue
10.893

@<SCITEGIC>MOL_PROPERTY
W
SciTegic.value.DoubleValue
-62.149

@<SCITEGIC>MOL_PROPERTY
W(PB)
SciTegic.value.DoubleValue
-64.367

@<SCITEGIC>MOL_PROPERTY
W(SA)
SciTegic.value.DoubleValue
2.218

@<SCITEGIC>MOL_PROPERTY
Valence
SciTegic.value.DoubleValue
8.348

@<SCITEGIC>MOL_PROPERTY
Coulomb
SciTegic.value.DoubleValue
2.011

@<SCITEGIC>MOL_PROPERTY
VdW
SciTegic.value.DoubleValue
0.534

@<SCITEGIC>MOL_PROPERTY
VdW6
SciTegic.value.DoubleValue
-9.124

@<SCITEGIC>MOL_PROPERTY
VdW12
SciTegic.value.DoubleValue
9.658

@<SCITEGIC>MOL_PROPERTY
Bond
SciTegic.value.DoubleValue
0.201

@<SCITEGIC>MOL_PROPERTY
Angle
SciTegic.value.DoubleValue
2.939

@<SCITEGIC>MOL_PROPERTY
Pdih
SciTegic.value.DoubleValue
5.207

@<SCITEGIC>MOL_PROPERTY
Idih
SciTegic.value.DoubleValue
0.002

@<SCITEGIC>MOL_PROPERTY
Tether
SciTegic.value.DoubleValue
0.000

@<TRIPOS>MOLECULE
guest-s21_vm2.mol2 : vm2 ligand conformer 41
          22          21           1
SMALL
USER_CHARGES
 
@<TRIPOS>ATOM
       1    C1      20.273251   18.962506   25.236000 C.2        1 MOL1         0.6145
       2    O1      20.759233   20.045365   25.498172 O.co2      1 MOL1        -0.6735
       3    O2      20.914885   17.930976   25.199859 O.co2      1 MOL1        -0.6735
       4    C2      18.764855   18.880370   25.009184 C.3        1 MOL1        -0.1985
       5    H1      18.294656   19.180687   25.952717 H          1 MOL1         0.0740
       6    H2      18.486283   17.833301   24.839227 H          1 MOL1         0.0740
       7    C3      18.216089   19.776337   23.863243 C.3        1 MOL1        -0.1882
       8    H3      17.140098   19.919681   24.030918 H          1 MOL1         0.0742
       9    H4      18.666699   20.776905   23.921446 H          1 MOL1         0.0742
      10    C4      18.397836   19.193940   22.439624 C.3        1 MOL1        -0.1880
      11    H5      17.840608   19.828621   21.737021 H          1 MOL1         0.0742
      12    H6      17.938361   18.197508   22.386396 H          1 MOL1         0.0742
      13    C5      19.869578   19.112806   21.974979 C.3        1 MOL1        -0.1880
      14    H7      20.358037   20.085447   22.124728 H          1 MOL1         0.0742
      15    H8      20.414097   18.382169   22.586310 H          1 MOL1         0.0742
      16    C6      19.977495   18.702932   20.490964 C.3        1 MOL1        -0.1856
      17    H9      19.443636   19.431094   19.864761 H          1 MOL1         0.0742
      18    H10     19.487862   17.730993   20.339279 H          1 MOL1         0.0742
      19    C7      21.446778   18.613767   20.031976 C.3        1 MOL1        -0.2871
      20    H11     21.952353   19.581874   20.143919 H          1 MOL1         0.0754
      21    H12     21.505374   18.320472   18.975772 H          1 MOL1         0.0754
      22    H13     21.997601   17.869440   20.621951 H          1 MOL1         0.0754
@<TRIPOS>BOND
    1     1     2    1
    2     1     3    2
    3     1     4    1
    4     4     5    1
    5     4     6    1
    6     4     7    1
    7     7     8    1
    8     7     9    1
    9     7    10    1
   10    10    11    1
   11    10    12    1
   12    10    13    1
   13    13    14    1
   14    13    15    1
   15    13    16    1
   16    16    17    1
   17    16    18    1
   18    16    19    1
   19    19    20    1
   20    19    21    1
   21    19    22    1
@<TRIPOS>SUBSTRUCTURE
       1 MOL1            1 RESIDUE      1      MOL     
@<SCITEGIC>MOL_PROPERTY
VM2 Rank
SciTegic.value.IntegerValue
41

@<SCITEGIC>MOL_PROPERTY
Conf_Id
SciTegic.value.IntegerValue
139

@<SCITEGIC>MOL_PROPERTY
Probability
SciTegic.value.DoubleValue
0.06

@<SCITEGIC>MOL_PROPERTY
Sum Probability
SciTegic.value.DoubleValue
99.47

@<SCITEGIC>MOL_PROPERTY
Delta G
SciTegic.value.DoubleValue
3.793

@<SCITEGIC>MOL_PROPERTY
G
SciTegic.value.DoubleValue
-13.206

@<SCITEGIC>MOL_PROPERTY
E
SciTegic.value.DoubleValue
-33.394

@<SCITEGIC>MOL_PROPERTY
-TS
SciTegic.value.DoubleValue
20.188

@<SCITEGIC>MOL_PROPERTY
U+W
SciTegic.value.DoubleValue
-51.279

@<SCITEGIC>MOL_PROPERTY
U
SciTegic.value.DoubleValue
11.237

@<SCITEGIC>MOL_PROPERTY
W
SciTegic.value.DoubleValue
-62.516

@<SCITEGIC>MOL_PROPERTY
W(PB)
SciTegic.value.DoubleValue
-64.781

@<SCITEGIC>MOL_PROPERTY
W(SA)
SciTegic.value.DoubleValue
2.265

@<SCITEGIC>MOL_PROPERTY
Valence
SciTegic.value.DoubleValue
9.029

@<SCITEGIC>MOL_PROPERTY
Coulomb
SciTegic.value.DoubleValue
1.668

@<SCITEGIC>MOL_PROPERTY
VdW
SciTegic.value.DoubleValue
0.540

@<SCITEGIC>MOL_PROPERTY
VdW6
SciTegic.value.DoubleValue
-8.824

@<SCITEGIC>MOL_PROPERTY
VdW12
SciTegic.value.DoubleValue
9.364

@<SCITEGIC>MOL_PROPERTY
Bond
SciTegic.value.DoubleValue
0.186

@<SCITEGIC>MOL_PROPERTY
Angle
SciTegic.value.DoubleValue
3.195

@<SCITEGIC>MOL_PROPERTY
Pdih
SciTegic.value.DoubleValue
5.641

@<SCITEGIC>MOL_PROPERTY
Idih
SciTegic.value.DoubleValue
0.007

@<SCITEGIC>MOL_PROPERTY
Tether
SciTegic.value.DoubleValue
0.000

@<TRIPOS>MOLECULE
guest-s21_vm2.mol2 : vm2 ligand conformer 42
          22          21           1
SMALL
USER_CHARGES
 
@<TRIPOS>ATOM
       1    C1      20.017958   19.437770   25.318661 C.2        1 MOL1         0.6145
       2    O1      20.862740   20.241364   24.976199 O.co2      1 MOL1        -0.6735
       3    O2      19.099649   19.706371   26.068317 O.co2      1 MOL1        -0.6735
       4    C2      20.134441   18.003681   24.809335 C.3        1 MOL1        -0.1985
       5    H1      20.090031   17.343451   25.683272 H          1 MOL1         0.0740
       6    H2      21.128249   17.867407   24.367816 H          1 MOL1         0.0740
       7    C3      19.026333   17.595274   23.800370 C.3        1 MOL1        -0.1882
       8    H3      19.149549   16.535450   23.539798 H          1 MOL1         0.0742
       9    H4      18.049334   17.678473   24.296213 H          1 MOL1         0.0742
      10    C4      19.000789   18.439936   22.502918 C.3        1 MOL1        -0.1880
      11    H5      18.820169   19.492620   22.757884 H          1 MOL1         0.0742
      12    H6      18.146410   18.116635   21.893003 H          1 MOL1         0.0742
      13    C5      20.296405   18.315606   21.664973 C.3        1 MOL1        -0.1880
      14    H7      21.137963   18.764312   22.209574 H          1 MOL1         0.0742
      15    H8      20.538302   17.252403   21.532364 H          1 MOL1         0.0742
      16    C6      20.187897   18.974260   20.270076 C.3        1 MOL1        -0.1856
      17    H9      19.360592   18.519661   19.707839 H          1 MOL1         0.0742
      18    H10     21.104338   18.756171   19.704651 H          1 MOL1         0.0742
      19    C7      19.993789   20.504738   20.333152 C.3        1 MOL1        -0.2871
      20    H11     20.793382   20.977721   20.918260 H          1 MOL1         0.0754
      21    H12     19.031927   20.767171   20.791197 H          1 MOL1         0.0754
      22    H13     20.011173   20.936632   19.324204 H          1 MOL1         0.0754
@<TRIPOS>BOND
    1     1     2    1
    2     1     3    2
    3     1     4    1
    4     4     5    1
    5     4     6    1
    6     4     7    1
    7     7     8    1
    8     7     9    1
    9     7    10    1
   10    10    11    1
   11    10    12    1
   12    10    13    1
   13    13    14    1
   14    13    15    1
   15    13    16    1
   16    16    17    1
   17    16    18    1
   18    16    19    1
   19    19    20    1
   20    19    21    1
   21    19    22    1
@<TRIPOS>SUBSTRUCTURE
       1 MOL1            1 RESIDUE      1      MOL     
@<SCITEGIC>MOL_PROPERTY
VM2 Rank
SciTegic.value.IntegerValue
42

@<SCITEGIC>MOL_PROPERTY
Conf_Id
SciTegic.value.IntegerValue
571

@<SCITEGIC>MOL_PROPERTY
Probability
SciTegic.value.DoubleValue
0.05

@<SCITEGIC>MOL_PROPERTY
Sum Probability
SciTegic.value.DoubleValue
99.52

@<SCITEGIC>MOL_PROPERTY
Delta G
SciTegic.value.DoubleValue
3.825

@<SCITEGIC>MOL_PROPERTY
G
SciTegic.value.DoubleValue
-13.174

@<SCITEGIC>MOL_PROPERTY
E
SciTegic.value.DoubleValue
-33.337

@<SCITEGIC>MOL_PROPERTY
-TS
SciTegic.value.DoubleValue
20.163

@<SCITEGIC>MOL_PROPERTY
U+W
SciTegic.value.DoubleValue
-51.221

@<SCITEGIC>MOL_PROPERTY
U
SciTegic.value.DoubleValue
10.893

@<SCITEGIC>MOL_PROPERTY
W
SciTegic.value.DoubleValue
-62.114

@<SCITEGIC>MOL_PROPERTY
W(PB)
SciTegic.value.DoubleValue
-64.331

@<SCITEGIC>MOL_PROPERTY
W(SA)
SciTegic.value.DoubleValue
2.217

@<SCITEGIC>MOL_PROPERTY
Valence
SciTegic.value.DoubleValue
8.348

@<SCITEGIC>MOL_PROPERTY
Coulomb
SciTegic.value.DoubleValue
2.010

@<SCITEGIC>MOL_PROPERTY
VdW
SciTegic.value.DoubleValue
0.534

@<SCITEGIC>MOL_PROPERTY
VdW6
SciTegic.value.DoubleValue
-9.124

@<SCITEGIC>MOL_PROPERTY
VdW12
SciTegic.value.DoubleValue
9.658

@<SCITEGIC>MOL_PROPERTY
Bond
SciTegic.value.DoubleValue
0.201

@<SCITEGIC>MOL_PROPERTY
Angle
SciTegic.value.DoubleValue
2.939

@<SCITEGIC>MOL_PROPERTY
Pdih
SciTegic.value.DoubleValue
5.207

@<SCITEGIC>MOL_PROPERTY
Idih
SciTegic.value.DoubleValue
0.002

@<SCITEGIC>MOL_PROPERTY
Tether
SciTegic.value.DoubleValue
0.000

@<TRIPOS>MOLECULE
guest-s21_vm2.mol2 : vm2 ligand conformer 43
          22          21           1
SMALL
USER_CHARGES
 
@<TRIPOS>ATOM
       1    C1      20.282799   19.082601   25.648452 C.2        1 MOL1         0.6145
       2    O1      20.705364   20.181384   25.949586 O.co2      1 MOL1        -0.6735
       3    O2      20.028976   18.214112   26.459552 O.co2      1 MOL1        -0.6735
       4    C2      20.036400   18.784607   24.173838 C.3        1 MOL1        -0.1985
       5    H1      20.200466   17.712850   24.010439 H          1 MOL1         0.0740
       6    H2      20.792762   19.326994   23.595512 H          1 MOL1         0.0740
       7    C3      18.613517   19.186264   23.709928 C.3        1 MOL1        -0.1882
       8    H3      17.880356   18.736290   24.393609 H          1 MOL1         0.0742
       9    H4      18.495906   20.274447   23.806260 H          1 MOL1         0.0742
      10    C4      18.267022   18.752495   22.263397 C.3        1 MOL1        -0.1880
      11    H5      17.226663   19.047849   22.070091 H          1 MOL1         0.0742
      12    H6      18.285722   17.656975   22.183141 H          1 MOL1         0.0742
      13    C5      19.160223   19.387183   21.167462 C.3        1 MOL1        -0.1880
      14    H7      18.537359   19.590770   20.285654 H          1 MOL1         0.0742
      15    H8      19.538091   20.361653   21.505967 H          1 MOL1         0.0742
      16    C6      20.331381   18.478048   20.728581 C.3        1 MOL1        -0.1856
      17    H9      19.934773   17.530264   20.339220 H          1 MOL1         0.0742
      18    H10     20.965615   18.223868   21.586197 H          1 MOL1         0.0742
      19    C7      21.194319   19.152305   19.643203 C.3        1 MOL1        -0.2871
      20    H11     20.595779   19.383364   18.752308 H          1 MOL1         0.0754
      21    H12     22.016496   18.492361   19.337376 H          1 MOL1         0.0754
      22    H13     21.631399   20.088269   20.015077 H          1 MOL1         0.0754
@<TRIPOS>BOND
    1     1     2    1
    2     1     3    2
    3     1     4    1
    4     4     5    1
    5     4     6    1
    6     4     7    1
    7     7     8    1
    8     7     9    1
    9     7    10    1
   10    10    11    1
   11    10    12    1
   12    10    13    1
   13    13    14    1
   14    13    15    1
   15    13    16    1
   16    16    17    1
   17    16    18    1
   18    16    19    1
   19    19    20    1
   20    19    21    1
   21    19    22    1
@<TRIPOS>SUBSTRUCTURE
       1 MOL1            1 RESIDUE      1      MOL     
@<SCITEGIC>MOL_PROPERTY
VM2 Rank
SciTegic.value.IntegerValue
43

@<SCITEGIC>MOL_PROPERTY
Conf_Id
SciTegic.value.IntegerValue
5

@<SCITEGIC>MOL_PROPERTY
Probability
SciTegic.value.DoubleValue
0.05

@<SCITEGIC>MOL_PROPERTY
Sum Probability
SciTegic.value.DoubleValue
99.57

@<SCITEGIC>MOL_PROPERTY
Delta G
SciTegic.value.DoubleValue
3.830

@<SCITEGIC>MOL_PROPERTY
G
SciTegic.value.DoubleValue
-13.168

@<SCITEGIC>MOL_PROPERTY
E
SciTegic.value.DoubleValue
-33.108

@<SCITEGIC>MOL_PROPERTY
-TS
SciTegic.value.DoubleValue
19.939

@<SCITEGIC>MOL_PROPERTY
U+W
SciTegic.value.DoubleValue
-50.993

@<SCITEGIC>MOL_PROPERTY
U
SciTegic.value.DoubleValue
10.045

@<SCITEGIC>MOL_PROPERTY
W
SciTegic.value.DoubleValue
-61.037

@<SCITEGIC>MOL_PROPERTY
W(PB)
SciTegic.value.DoubleValue
-63.303

@<SCITEGIC>MOL_PROPERTY
W(SA)
SciTegic.value.DoubleValue
2.266

@<SCITEGIC>MOL_PROPERTY
Valence
SciTegic.value.DoubleValue
10.100

@<SCITEGIC>MOL_PROPERTY
Coulomb
SciTegic.value.DoubleValue
-0.883

@<SCITEGIC>MOL_PROPERTY
VdW
SciTegic.value.DoubleValue
0.828

@<SCITEGIC>MOL_PROPERTY
VdW6
SciTegic.value.DoubleValue
-8.177

@<SCITEGIC>MOL_PROPERTY
VdW12
SciTegic.value.DoubleValue
9.005

@<SCITEGIC>MOL_PROPERTY
Bond
SciTegic.value.DoubleValue
0.182

@<SCITEGIC>MOL_PROPERTY
Angle
SciTegic.value.DoubleValue
2.988

@<SCITEGIC>MOL_PROPERTY
Pdih
SciTegic.value.DoubleValue
6.930

@<SCITEGIC>MOL_PROPERTY
Idih
SciTegic.value.DoubleValue
0.001

@<SCITEGIC>MOL_PROPERTY
Tether
SciTegic.value.DoubleValue
0.000

@<TRIPOS>MOLECULE
guest-s21_vm2.mol2 : vm2 ligand conformer 44
          22          21           1
SMALL
USER_CHARGES
 
@<TRIPOS>ATOM
       1    C1      20.256109   19.279111   25.223852 C.2        1 MOL1         0.6145
       2    O1      20.782985   20.367982   25.106299 O.co2      1 MOL1        -0.6735
       3    O2      20.854838   18.278202   25.566194 O.co2      1 MOL1        -0.6735
       4    C2      18.748613   19.180679   24.997529 C.3        1 MOL1        -0.1985
       5    H1      18.359587   20.175538   24.749018 H          1 MOL1         0.0740
       6    H2      18.309520   18.904585   25.963190 H          1 MOL1         0.0740
       7    C3      18.304432   18.145697   23.925804 C.3        1 MOL1        -0.1882
       8    H3      18.860116   17.206988   24.058524 H          1 MOL1         0.0742
       9    H4      17.249502   17.900354   24.108430 H          1 MOL1         0.0742
      10    C4      18.428169   18.633642   22.461049 C.3        1 MOL1        -0.1880
      11    H5      17.863832   19.567506   22.333565 H          1 MOL1         0.0742
      12    H6      17.945860   17.890494   21.811370 H          1 MOL1         0.0742
      13    C5      19.884460   18.837722   21.985575 C.3        1 MOL1        -0.1880
      14    H7      20.344094   19.667699   22.536881 H          1 MOL1         0.0742
      15    H8      20.474665   17.938017   22.207464 H          1 MOL1         0.0742
      16    C6      19.953721   19.141890   20.474074 C.3        1 MOL1        -0.1856
      17    H9      19.362436   20.040625   20.250303 H          1 MOL1         0.0742
      18    H10     19.504471   18.314378   19.907724 H          1 MOL1         0.0742
      19    C7      21.406673   19.354075   20.003623 C.3        1 MOL1        -0.2871
      20    H11     21.437690   19.570163   18.927813 H          1 MOL1         0.0754
      21    H12     22.013542   18.457800   20.187392 H          1 MOL1         0.0754
      22    H13     21.871215   20.196651   20.532553 H          1 MOL1         0.0754
@<TRIPOS>BOND
    1     1     2    1
    2     1     3    2
    3     1     4    1
    4     4     5    1
    5     4     6    1
    6     4     7    1
    7     7     8    1
    8     7     9    1
    9     7    10    1
   10    10    11    1
   11    10    12    1
   12    10    13    1
   13    13    14    1
   14    13    15    1
   15    13    16    1
   16    16    17    1
   17    16    18    1
   18    16    19    1
   19    19    20    1
   20    19    21    1
   21    19    22    1
@<TRIPOS>SUBSTRUCTURE
       1 MOL1            1 RESIDUE      1      MOL     
@<SCITEGIC>MOL_PROPERTY
VM2 Rank
SciTegic.value.IntegerValue
44

@<SCITEGIC>MOL_PROPERTY
Conf_Id
SciTegic.value.IntegerValue
525

@<SCITEGIC>MOL_PROPERTY
Probability
SciTegic.value.DoubleValue
0.05

@<SCITEGIC>MOL_PROPERTY
Sum Probability
SciTegic.value.DoubleValue
99.62

@<SCITEGIC>MOL_PROPERTY
Delta G
SciTegic.value.DoubleValue
3.843

@<SCITEGIC>MOL_PROPERTY
G
SciTegic.value.DoubleValue
-13.156

@<SCITEGIC>MOL_PROPERTY
E
SciTegic.value.DoubleValue
-33.345

@<SCITEGIC>MOL_PROPERTY
-TS
SciTegic.value.DoubleValue
20.189

@<SCITEGIC>MOL_PROPERTY
U+W
SciTegic.value.DoubleValue
-51.229

@<SCITEGIC>MOL_PROPERTY
U
SciTegic.value.DoubleValue
11.237

@<SCITEGIC>MOL_PROPERTY
W
SciTegic.value.DoubleValue
-62.466

@<SCITEGIC>MOL_PROPERTY
W(PB)
SciTegic.value.DoubleValue
-64.731

@<SCITEGIC>MOL_PROPERTY
W(SA)
SciTegic.value.DoubleValue
2.265

@<SCITEGIC>MOL_PROPERTY
Valence
SciTegic.value.DoubleValue
9.030

@<SCITEGIC>MOL_PROPERTY
Coulomb
SciTegic.value.DoubleValue
1.667

@<SCITEGIC>MOL_PROPERTY
VdW
SciTegic.value.DoubleValue
0.540

@<SCITEGIC>MOL_PROPERTY
VdW6
SciTegic.value.DoubleValue
-8.824

@<SCITEGIC>MOL_PROPERTY
VdW12
SciTegic.value.DoubleValue
9.364

@<SCITEGIC>MOL_PROPERTY
Bond
SciTegic.value.DoubleValue
0.186

@<SCITEGIC>MOL_PROPERTY
Angle
SciTegic.value.DoubleValue
3.195

@<SCITEGIC>MOL_PROPERTY
Pdih
SciTegic.value.DoubleValue
5.642

@<SCITEGIC>MOL_PROPERTY
Idih
SciTegic.value.DoubleValue
0.007

@<SCITEGIC>MOL_PROPERTY
Tether
SciTegic.value.DoubleValue
0.000

@<TRIPOS>MOLECULE
guest-s21_vm2.mol2 : vm2 ligand conformer 45
          22          21           1
SMALL
USER_CHARGES
 
@<TRIPOS>ATOM
       1    C1      20.241018   19.074313   25.652443 C.2        1 MOL1         0.6145
       2    O1      19.669461   19.500335   26.636545 O.co2      1 MOL1        -0.6735
       3    O2      21.046906   18.165451   25.683016 O.co2      1 MOL1        -0.6735
       4    C2      19.913711   19.701580   24.302191 C.3        1 MOL1        -0.1985
       5    H1      20.816519   19.659068   23.684998 H          1 MOL1         0.0740
       6    H2      19.690060   20.762254   24.467439 H          1 MOL1         0.0740
       7    C3      18.718517   19.010891   23.593567 C.3        1 MOL1        -0.1882
       8    H3      18.911881   17.934478   23.487139 H          1 MOL1         0.0742
       9    H4      17.840417   19.100013   24.248116 H          1 MOL1         0.0742
      10    C4      18.375976   19.633471   22.216267 C.3        1 MOL1        -0.1880
      11    H5      18.649995   20.697223   22.200239 H          1 MOL1         0.0742
      12    H6      17.285018   19.604695   22.090061 H          1 MOL1         0.0742
      13    C5      19.004169   18.904085   21.002253 C.3        1 MOL1        -0.1880
      14    H7      18.644365   17.866488   20.973840 H          1 MOL1         0.0742
      15    H8      18.635233   19.382744   20.084832 H          1 MOL1         0.0742
      16    C6      20.548189   18.910980   20.984471 C.3        1 MOL1        -0.1856
      17    H9      20.933047   18.324569   21.829186 H          1 MOL1         0.0742
      18    H10     20.917154   19.938726   21.105333 H          1 MOL1         0.0742
      19    C7      21.102054   18.317895   19.673247 C.3        1 MOL1        -0.2871
      20    H11     22.199760   18.321961   19.680550 H          1 MOL1         0.0754
      21    H12     20.767040   18.900845   18.805347 H          1 MOL1         0.0754
      22    H13     20.767723   17.280703   19.539782 H          1 MOL1         0.0754
@<TRIPOS>BOND
    1     1     2    1
    2     1     3    2
    3     1     4    1
    4     4     5    1
    5     4     6    1
    6     4     7    1
    7     7     8    1
    8     7     9    1
    9     7    10    1
   10    10    11    1
   11    10    12    1
   12    10    13    1
   13    13    14    1
   14    13    15    1
   15    13    16    1
   16    16    17    1
   17    16    18    1
   18    16    19    1
   19    19    20    1
   20    19    21    1
   21    19    22    1
@<TRIPOS>SUBSTRUCTURE
       1 MOL1            1 RESIDUE      1      MOL     
@<SCITEGIC>MOL_PROPERTY
VM2 Rank
SciTegic.value.IntegerValue
45

@<SCITEGIC>MOL_PROPERTY
Conf_Id
SciTegic.value.IntegerValue
349

@<SCITEGIC>MOL_PROPERTY
Probability
SciTegic.value.DoubleValue
0.05

@<SCITEGIC>MOL_PROPERTY
Sum Probability
SciTegic.value.DoubleValue
99.67

@<SCITEGIC>MOL_PROPERTY
Delta G
SciTegic.value.DoubleValue
3.884

@<SCITEGIC>MOL_PROPERTY
G
SciTegic.value.DoubleValue
-13.115

@<SCITEGIC>MOL_PROPERTY
E
SciTegic.value.DoubleValue
-33.061

@<SCITEGIC>MOL_PROPERTY
-TS
SciTegic.value.DoubleValue
19.946

@<SCITEGIC>MOL_PROPERTY
U+W
SciTegic.value.DoubleValue
-50.946

@<SCITEGIC>MOL_PROPERTY
U
SciTegic.value.DoubleValue
10.205

@<SCITEGIC>MOL_PROPERTY
W
SciTegic.value.DoubleValue
-61.151

@<SCITEGIC>MOL_PROPERTY
W(PB)
SciTegic.value.DoubleValue
-63.412

@<SCITEGIC>MOL_PROPERTY
W(SA)
SciTegic.value.DoubleValue
2.261

@<SCITEGIC>MOL_PROPERTY
Valence
SciTegic.value.DoubleValue
10.107

@<SCITEGIC>MOL_PROPERTY
Coulomb
SciTegic.value.DoubleValue
-0.699

@<SCITEGIC>MOL_PROPERTY
VdW
SciTegic.value.DoubleValue
0.797

@<SCITEGIC>MOL_PROPERTY
VdW6
SciTegic.value.DoubleValue
-8.211

@<SCITEGIC>MOL_PROPERTY
VdW12
SciTegic.value.DoubleValue
9.008

@<SCITEGIC>MOL_PROPERTY
Bond
SciTegic.value.DoubleValue
0.191

@<SCITEGIC>MOL_PROPERTY
Angle
SciTegic.value.DoubleValue
3.004

@<SCITEGIC>MOL_PROPERTY
Pdih
SciTegic.value.DoubleValue
6.912

@<SCITEGIC>MOL_PROPERTY
Idih
SciTegic.value.DoubleValue
0.001

@<SCITEGIC>MOL_PROPERTY
Tether
SciTegic.value.DoubleValue
0.000

@<TRIPOS>MOLECULE
guest-s21_vm2.mol2 : vm2 ligand conformer 46
          22          21           1
SMALL
USER_CHARGES
 
@<TRIPOS>ATOM
       1    C1      20.234378   19.196699   25.647746 C.2        1 MOL1         0.6145
       2    O1      20.937164   20.187016   25.605496 O.co2      1 MOL1        -0.6735
       3    O2      19.708181   18.787759   26.663873 O.co2      1 MOL1        -0.6735
       4    C2      19.982363   18.436502   24.350687 C.3        1 MOL1        -0.1985
       5    H1      19.873984   17.373596   24.597343 H          1 MOL1         0.0740
       6    H2      20.877835   18.529103   23.728313 H          1 MOL1         0.0740
       7    C3      18.722460   18.937854   23.596378 C.3        1 MOL1        -0.1882
       8    H3      17.856445   18.804602   24.259475 H          1 MOL1         0.0742
       9    H4      18.798805   20.017572   23.407276 H          1 MOL1         0.0742
      10    C4      18.454866   18.178583   22.272066 C.3        1 MOL1        -0.1880
      11    H5      17.367711   18.079670   22.148540 H          1 MOL1         0.0742
      12    H6      18.842207   17.152540   22.336183 H          1 MOL1         0.0742
      13    C5      19.005653   18.876692   21.003311 C.3        1 MOL1        -0.1880
      14    H7      18.694351   18.292355   20.126652 H          1 MOL1         0.0742
      15    H8      18.536048   19.864161   20.897244 H          1 MOL1         0.0742
      16    C6      20.541451   19.035203   20.979712 C.3        1 MOL1        -0.1856
      17    H9      21.018720   18.065559   21.177221 H          1 MOL1         0.0742
      18    H10     20.857236   19.722560   21.775547 H          1 MOL1         0.0742
      19    C7      21.033485   19.582692   19.624730 C.3        1 MOL1        -0.2871
      20    H11     20.767000   18.902372   18.805300 H          1 MOL1         0.0754
      21    H12     22.125170   19.697759   19.627798 H          1 MOL1         0.0754
      22    H13     20.589668   20.564467   19.413780 H          1 MOL1         0.0754
@<TRIPOS>BOND
    1     1     2    1
    2     1     3    2
    3     1     4    1
    4     4     5    1
    5     4     6    1
    6     4     7    1
    7     7     8    1
    8     7     9    1
    9     7    10    1
   10    10    11    1
   11    10    12    1
   12    10    13    1
   13    13    14    1
   14    13    15    1
   15    13    16    1
   16    16    17    1
   17    16    18    1
   18    16    19    1
   19    19    20    1
   20    19    21    1
   21    19    22    1
@<TRIPOS>SUBSTRUCTURE
       1 MOL1            1 RESIDUE      1      MOL     
@<SCITEGIC>MOL_PROPERTY
VM2 Rank
SciTegic.value.IntegerValue
46

@<SCITEGIC>MOL_PROPERTY
Conf_Id
SciTegic.value.IntegerValue
68

@<SCITEGIC>MOL_PROPERTY
Probability
SciTegic.value.DoubleValue
0.05

@<SCITEGIC>MOL_PROPERTY
Sum Probability
SciTegic.value.DoubleValue
99.71

@<SCITEGIC>MOL_PROPERTY
Delta G
SciTegic.value.DoubleValue
3.909

@<SCITEGIC>MOL_PROPERTY
G
SciTegic.value.DoubleValue
-13.090

@<SCITEGIC>MOL_PROPERTY
E
SciTegic.value.DoubleValue
-33.035

@<SCITEGIC>MOL_PROPERTY
-TS
SciTegic.value.DoubleValue
19.946

@<SCITEGIC>MOL_PROPERTY
U+W
SciTegic.value.DoubleValue
-50.920

@<SCITEGIC>MOL_PROPERTY
U
SciTegic.value.DoubleValue
10.205

@<SCITEGIC>MOL_PROPERTY
W
SciTegic.value.DoubleValue
-61.125

@<SCITEGIC>MOL_PROPERTY
W(PB)
SciTegic.value.DoubleValue
-63.384

@<SCITEGIC>MOL_PROPERTY
W(SA)
SciTegic.value.DoubleValue
2.259

@<SCITEGIC>MOL_PROPERTY
Valence
SciTegic.value.DoubleValue
10.107

@<SCITEGIC>MOL_PROPERTY
Coulomb
SciTegic.value.DoubleValue
-0.699

@<SCITEGIC>MOL_PROPERTY
VdW
SciTegic.value.DoubleValue
0.797

@<SCITEGIC>MOL_PROPERTY
VdW6
SciTegic.value.DoubleValue
-8.212

@<SCITEGIC>MOL_PROPERTY
VdW12
SciTegic.value.DoubleValue
9.009

@<SCITEGIC>MOL_PROPERTY
Bond
SciTegic.value.DoubleValue
0.191

@<SCITEGIC>MOL_PROPERTY
Angle
SciTegic.value.DoubleValue
3.004

@<SCITEGIC>MOL_PROPERTY
Pdih
SciTegic.value.DoubleValue
6.911

@<SCITEGIC>MOL_PROPERTY
Idih
SciTegic.value.DoubleValue
0.001

@<SCITEGIC>MOL_PROPERTY
Tether
SciTegic.value.DoubleValue
0.000

@<TRIPOS>MOLECULE
guest-s21_vm2.mol2 : vm2 ligand conformer 47
          22          21           1
SMALL
USER_CHARGES
 
@<TRIPOS>ATOM
       1    C1      19.648934   19.370431   25.771435 C.2        1 MOL1         0.6145
       2    O1      20.481911   20.116530   26.246832 O.co2      1 MOL1        -0.6735
       3    O2      18.466465   19.419033   26.046919 O.co2      1 MOL1        -0.6735
       4    C2      20.110551   18.326455   24.760800 C.3        1 MOL1        -0.1985
       5    H1      19.463311   17.446700   24.859493 H          1 MOL1         0.0740
       6    H2      21.125952   18.014592   25.033312 H          1 MOL1         0.0740
       7    C3      20.083771   18.848071   23.302913 C.3        1 MOL1        -0.1882
       8    H3      19.062028   19.169511   23.062298 H          1 MOL1         0.0742
       9    H4      20.730952   19.732152   23.220898 H          1 MOL1         0.0742
      10    C4      20.543202   17.768334   22.297966 C.3        1 MOL1        -0.1880
      11    H5      19.837359   16.926746   22.318273 H          1 MOL1         0.0742
      12    H6      21.511864   17.366091   22.624745 H          1 MOL1         0.0742
      13    C5      20.695807   18.277056   20.842519 C.3        1 MOL1        -0.1880
      14    H7      21.468086   19.056945   20.794755 H          1 MOL1         0.0742
      15    H8      21.077944   17.441951   20.239643 H          1 MOL1         0.0742
      16    C6      19.383907   18.780640   20.190447 C.3        1 MOL1        -0.1856
      17    H9      18.517812   18.268362   20.631693 H          1 MOL1         0.0742
      18    H10     19.392412   18.504875   19.126877 H          1 MOL1         0.0742
      19    C7      19.205452   20.312449   20.284168 C.3        1 MOL1        -0.2871
      20    H11     20.032463   20.832910   19.783923 H          1 MOL1         0.0754
      21    H12     19.169134   20.656794   21.323891 H          1 MOL1         0.0754
      22    H13     18.271500   20.620459   19.796645 H          1 MOL1         0.0754
@<TRIPOS>BOND
    1     1     2    1
    2     1     3    2
    3     1     4    1
    4     4     5    1
    5     4     6    1
    6     4     7    1
    7     7     8    1
    8     7     9    1
    9     7    10    1
   10    10    11    1
   11    10    12    1
   12    10    13    1
   13    13    14    1
   14    13    15    1
   15    13    16    1
   16    16    17    1
   17    16    18    1
   18    16    19    1
   19    19    20    1
   20    19    21    1
   21    19    22    1
@<TRIPOS>SUBSTRUCTURE
       1 MOL1            1 RESIDUE      1      MOL     
@<SCITEGIC>MOL_PROPERTY
VM2 Rank
SciTegic.value.IntegerValue
47

@<SCITEGIC>MOL_PROPERTY
Conf_Id
SciTegic.value.IntegerValue
347

@<SCITEGIC>MOL_PROPERTY
Probability
SciTegic.value.DoubleValue
0.04

@<SCITEGIC>MOL_PROPERTY
Sum Probability
SciTegic.value.DoubleValue
99.76

@<SCITEGIC>MOL_PROPERTY
Delta G
SciTegic.value.DoubleValue
3.934

@<SCITEGIC>MOL_PROPERTY
G
SciTegic.value.DoubleValue
-13.064

@<SCITEGIC>MOL_PROPERTY
E
SciTegic.value.DoubleValue
-32.973

@<SCITEGIC>MOL_PROPERTY
-TS
SciTegic.value.DoubleValue
19.909

@<SCITEGIC>MOL_PROPERTY
U+W
SciTegic.value.DoubleValue
-50.858

@<SCITEGIC>MOL_PROPERTY
U
SciTegic.value.DoubleValue
10.453

@<SCITEGIC>MOL_PROPERTY
W
SciTegic.value.DoubleValue
-61.310

@<SCITEGIC>MOL_PROPERTY
W(PB)
SciTegic.value.DoubleValue
-63.580

@<SCITEGIC>MOL_PROPERTY
W(SA)
SciTegic.value.DoubleValue
2.270

@<SCITEGIC>MOL_PROPERTY
Valence
SciTegic.value.DoubleValue
10.097

@<SCITEGIC>MOL_PROPERTY
Coulomb
SciTegic.value.DoubleValue
-0.504

@<SCITEGIC>MOL_PROPERTY
VdW
SciTegic.value.DoubleValue
0.859

@<SCITEGIC>MOL_PROPERTY
VdW6
SciTegic.value.DoubleValue
-8.064

@<SCITEGIC>MOL_PROPERTY
VdW12
SciTegic.value.DoubleValue
8.924

@<SCITEGIC>MOL_PROPERTY
Bond
SciTegic.value.DoubleValue
0.175

@<SCITEGIC>MOL_PROPERTY
Angle
SciTegic.value.DoubleValue
2.998

@<SCITEGIC>MOL_PROPERTY
Pdih
SciTegic.value.DoubleValue
6.924

@<SCITEGIC>MOL_PROPERTY
Idih
SciTegic.value.DoubleValue
0.000

@<SCITEGIC>MOL_PROPERTY
Tether
SciTegic.value.DoubleValue
0.000

@<TRIPOS>MOLECULE
guest-s21_vm2.mol2 : vm2 ligand conformer 48
          22          21           1
SMALL
USER_CHARGES
 
@<TRIPOS>ATOM
       1    C1      20.018113   19.327731   25.819564 C.2        1 MOL1         0.6145
       2    O1      20.536069   20.418820   25.952627 O.co2      1 MOL1        -0.6735
       3    O2      20.227178   18.388533   26.561681 O.co2      1 MOL1        -0.6735
       4    C2      19.067474   19.120021   24.645908 C.3        1 MOL1        -0.1985
       5    H1      18.565241   20.073201   24.441366 H          1 MOL1         0.0740
       6    H2      18.294868   18.405999   24.955435 H          1 MOL1         0.0740
       7    C3      19.786342   18.611819   23.371950 C.3        1 MOL1        -0.1882
       8    H3      20.569334   19.327341   23.093295 H          1 MOL1         0.0742
       9    H4      20.293450   17.663676   23.597975 H          1 MOL1         0.0742
      10    C4      18.798198   18.403928   22.199948 C.3        1 MOL1        -0.1880
      11    H5      18.243913   19.330622   21.997721 H          1 MOL1         0.0742
      12    H6      18.050532   17.661329   22.510629 H          1 MOL1         0.0742
      13    C5      19.481256   17.899934   20.903313 C.3        1 MOL1        -0.1880
      14    H7      20.376273   17.311653   21.147727 H          1 MOL1         0.0742
      15    H8      18.793826   17.203513   20.403987 H          1 MOL1         0.0742
      16    C6      19.837141   19.011950   19.885777 C.3        1 MOL1        -0.1856
      17    H9      18.922222   19.538259   19.580570 H          1 MOL1         0.0742
      18    H10     20.236489   18.538823   18.978121 H          1 MOL1         0.0742
      19    C7      20.868228   20.036264   20.403232 C.3        1 MOL1        -0.2871
      20    H11     20.447393   20.647361   21.211392 H          1 MOL1         0.0754
      21    H12     21.170342   20.717336   19.597232 H          1 MOL1         0.0754
      22    H13     21.769341   19.533675   20.777912 H          1 MOL1         0.0754
@<TRIPOS>BOND
    1     1     2    1
    2     1     3    2
    3     1     4    1
    4     4     5    1
    5     4     6    1
    6     4     7    1
    7     7     8    1
    8     7     9    1
    9     7    10    1
   10    10    11    1
   11    10    12    1
   12    10    13    1
   13    13    14    1
   14    13    15    1
   15    13    16    1
   16    16    17    1
   17    16    18    1
   18    16    19    1
   19    19    20    1
   20    19    21    1
   21    19    22    1
@<TRIPOS>SUBSTRUCTURE
       1 MOL1            1 RESIDUE      1      MOL     
@<SCITEGIC>MOL_PROPERTY
VM2 Rank
SciTegic.value.IntegerValue
48

@<SCITEGIC>MOL_PROPERTY
Conf_Id
SciTegic.value.IntegerValue
271

@<SCITEGIC>MOL_PROPERTY
Probability
SciTegic.value.DoubleValue
0.04

@<SCITEGIC>MOL_PROPERTY
Sum Probability
SciTegic.value.DoubleValue
99.80

@<SCITEGIC>MOL_PROPERTY
Delta G
SciTegic.value.DoubleValue
3.974

@<SCITEGIC>MOL_PROPERTY
G
SciTegic.value.DoubleValue
-13.025

@<SCITEGIC>MOL_PROPERTY
E
SciTegic.value.DoubleValue
-32.933

@<SCITEGIC>MOL_PROPERTY
-TS
SciTegic.value.DoubleValue
19.908

@<SCITEGIC>MOL_PROPERTY
U+W
SciTegic.value.DoubleValue
-50.817

@<SCITEGIC>MOL_PROPERTY
U
SciTegic.value.DoubleValue
10.295

@<SCITEGIC>MOL_PROPERTY
W
SciTegic.value.DoubleValue
-61.113

@<SCITEGIC>MOL_PROPERTY
W(PB)
SciTegic.value.DoubleValue
-63.368

@<SCITEGIC>MOL_PROPERTY
W(SA)
SciTegic.value.DoubleValue
2.256

@<SCITEGIC>MOL_PROPERTY
Valence
SciTegic.value.DoubleValue
10.075

@<SCITEGIC>MOL_PROPERTY
Coulomb
SciTegic.value.DoubleValue
-0.615

@<SCITEGIC>MOL_PROPERTY
VdW
SciTegic.value.DoubleValue
0.835

@<SCITEGIC>MOL_PROPERTY
VdW6
SciTegic.value.DoubleValue
-8.072

@<SCITEGIC>MOL_PROPERTY
VdW12
SciTegic.value.DoubleValue
8.908

@<SCITEGIC>MOL_PROPERTY
Bond
SciTegic.value.DoubleValue
0.176

@<SCITEGIC>MOL_PROPERTY
Angle
SciTegic.value.DoubleValue
2.976

@<SCITEGIC>MOL_PROPERTY
Pdih
SciTegic.value.DoubleValue
6.923

@<SCITEGIC>MOL_PROPERTY
Idih
SciTegic.value.DoubleValue
0.000

@<SCITEGIC>MOL_PROPERTY
Tether
SciTegic.value.DoubleValue
0.000

@<TRIPOS>MOLECULE
guest-s21_vm2.mol2 : vm2 ligand conformer 49
          22          21           1
SMALL
USER_CHARGES
 
@<TRIPOS>ATOM
       1    C1      19.675069   18.849539   25.791420 C.2        1 MOL1         0.6145
       2    O1      18.502271   18.703850   26.073922 O.co2      1 MOL1        -0.6735
       3    O2      20.576612   18.229271   26.319628 O.co2      1 MOL1        -0.6735
       4    C2      20.033992   19.854160   24.702260 C.3        1 MOL1        -0.1985
       5    H1      21.012132   20.285748   24.946259 H          1 MOL1         0.0740
       6    H2      19.301768   20.669843   24.735983 H          1 MOL1         0.0740
       7    C3      20.064988   19.222693   23.288566 C.3        1 MOL1        -0.1882
       8    H3      20.797476   18.403945   23.271817 H          1 MOL1         0.0742
       9    H4      19.081353   18.783463   23.077100 H          1 MOL1         0.0742
      10    C4      20.418215   20.262995   22.202367 C.3        1 MOL1        -0.1880
      11    H5      21.340640   20.783667   22.493782 H          1 MOL1         0.0742
      12    H6      19.631838   21.029024   22.161055 H          1 MOL1         0.0742
      13    C5      20.626408   19.662418   20.789435 C.3        1 MOL1        -0.1880
      14    H7      20.925674   20.483004   20.123125 H          1 MOL1         0.0742
      15    H8      21.472799   18.962087   20.798424 H          1 MOL1         0.0742
      16    C6      19.373804   18.982199   20.182672 C.3        1 MOL1        -0.1856
      17    H9      19.358879   19.175440   19.101128 H          1 MOL1         0.0742
      18    H10     18.459237   19.437724   20.586787 H          1 MOL1         0.0742
      19    C7      19.348642   17.451876   20.393731 C.3        1 MOL1        -0.2871
      20    H11     20.225363   16.979829   19.931557 H          1 MOL1         0.0754
      21    H12     18.451954   17.015947   19.934671 H          1 MOL1         0.0754
      22    H13     19.342820   17.186004   21.456837 H          1 MOL1         0.0754
@<TRIPOS>BOND
    1     1     2    1
    2     1     3    2
    3     1     4    1
    4     4     5    1
    5     4     6    1
    6     4     7    1
    7     7     8    1
    8     7     9    1
    9     7    10    1
   10    10    11    1
   11    10    12    1
   12    10    13    1
   13    13    14    1
   14    13    15    1
   15    13    16    1
   16    16    17    1
   17    16    18    1
   18    16    19    1
   19    19    20    1
   20    19    21    1
   21    19    22    1
@<TRIPOS>SUBSTRUCTURE
       1 MOL1            1 RESIDUE      1      MOL     
@<SCITEGIC>MOL_PROPERTY
VM2 Rank
SciTegic.value.IntegerValue
49

@<SCITEGIC>MOL_PROPERTY
Conf_Id
SciTegic.value.IntegerValue
564

@<SCITEGIC>MOL_PROPERTY
Probability
SciTegic.value.DoubleValue
0.04

@<SCITEGIC>MOL_PROPERTY
Sum Probability
SciTegic.value.DoubleValue
99.84

@<SCITEGIC>MOL_PROPERTY
Delta G
SciTegic.value.DoubleValue
3.998

@<SCITEGIC>MOL_PROPERTY
G
SciTegic.value.DoubleValue
-13.001

@<SCITEGIC>MOL_PROPERTY
E
SciTegic.value.DoubleValue
-32.910

@<SCITEGIC>MOL_PROPERTY
-TS
SciTegic.value.DoubleValue
19.909

@<SCITEGIC>MOL_PROPERTY
U+W
SciTegic.value.DoubleValue
-50.794

@<SCITEGIC>MOL_PROPERTY
U
SciTegic.value.DoubleValue
10.452

@<SCITEGIC>MOL_PROPERTY
W
SciTegic.value.DoubleValue
-61.248

@<SCITEGIC>MOL_PROPERTY
W(PB)
SciTegic.value.DoubleValue
-63.525

@<SCITEGIC>MOL_PROPERTY
W(SA)
SciTegic.value.DoubleValue
2.278

@<SCITEGIC>MOL_PROPERTY
Valence
SciTegic.value.DoubleValue
10.097

@<SCITEGIC>MOL_PROPERTY
Coulomb
SciTegic.value.DoubleValue
-0.504

@<SCITEGIC>MOL_PROPERTY
VdW
SciTegic.value.DoubleValue
0.859

@<SCITEGIC>MOL_PROPERTY
VdW6
SciTegic.value.DoubleValue
-8.064

@<SCITEGIC>MOL_PROPERTY
VdW12
SciTegic.value.DoubleValue
8.923

@<SCITEGIC>MOL_PROPERTY
Bond
SciTegic.value.DoubleValue
0.175

@<SCITEGIC>MOL_PROPERTY
Angle
SciTegic.value.DoubleValue
2.998

@<SCITEGIC>MOL_PROPERTY
Pdih
SciTegic.value.DoubleValue
6.924

@<SCITEGIC>MOL_PROPERTY
Idih
SciTegic.value.DoubleValue
0.000

@<SCITEGIC>MOL_PROPERTY
Tether
SciTegic.value.DoubleValue
0.000

@<TRIPOS>MOLECULE
guest-s21_vm2.mol2 : vm2 ligand conformer 50
          22          21           1
SMALL
USER_CHARGES
 
@<TRIPOS>ATOM
       1    C1      19.995873   19.343054   25.819059 C.2        1 MOL1         0.6145
       2    O1      20.824864   20.220299   25.959328 O.co2      1 MOL1        -0.6735
       3    O2      19.022929   19.215739   26.535794 O.co2      1 MOL1        -0.6735
       4    C2      20.176825   18.358210   24.669421 C.3        1 MOL1        -0.1985
       5    H1      19.778717   17.386987   24.986897 H          1 MOL1         0.0740
       6    H2      21.252184   18.227925   24.498370 H          1 MOL1         0.0740
       7    C3      19.481616   18.821168   23.365440 C.3        1 MOL1        -0.1882
       8    H3      18.408580   18.958174   23.557913 H          1 MOL1         0.0742
       9    H4      19.876458   19.803258   23.078578 H          1 MOL1         0.0742
      10    C4      19.675851   17.801316   22.218522 C.3        1 MOL1        -0.1880
      11    H5      19.242313   16.843046   22.535925 H          1 MOL1         0.0742
      12    H6      20.745113   17.613189   22.050664 H          1 MOL1         0.0742
      13    C5      18.997850   18.231753   20.893046 C.3        1 MOL1        -0.1880
      14    H7      18.609290   17.330176   20.400025 H          1 MOL1         0.0742
      15    H8      18.120726   18.860026   21.099913 H          1 MOL1         0.0742
      16    C6      19.936820   18.943492   19.887869 C.3        1 MOL1        -0.1856
      17    H9      19.378220   19.127958   18.959912 H          1 MOL1         0.0742
      18    H10     20.765033   18.273174   19.619606 H          1 MOL1         0.0742
      19    C7      20.507371   20.283969   20.395521 C.3        1 MOL1        -0.2871
      20    H11     19.704247   20.951268   20.734180 H          1 MOL1         0.0754
      21    H12     21.057397   20.794808   19.594721 H          1 MOL1         0.0754
      22    H13     21.205366   20.127109   21.227302 H          1 MOL1         0.0754
@<TRIPOS>BOND
    1     1     2    1
    2     1     3    2
    3     1     4    1
    4     4     5    1
    5     4     6    1
    6     4     7    1
    7     7     8    1
    8     7     9    1
    9     7    10    1
   10    10    11    1
   11    10    12    1
   12    10    13    1
   13    13    14    1
   14    13    15    1
   15    13    16    1
   16    16    17    1
   17    16    18    1
   18    16    19    1
   19    19    20    1
   20    19    21    1
   21    19    22    1
@<TRIPOS>SUBSTRUCTURE
       1 MOL1            1 RESIDUE      1      MOL     
@<SCITEGIC>MOL_PROPERTY
VM2 Rank
SciTegic.value.IntegerValue
50

@<SCITEGIC>MOL_PROPERTY
Conf_Id
SciTegic.value.IntegerValue
574

@<SCITEGIC>MOL_PROPERTY
Probability
SciTegic.value.DoubleValue
0.03

@<SCITEGIC>MOL_PROPERTY
Sum Probability
SciTegic.value.DoubleValue
99.87

@<SCITEGIC>MOL_PROPERTY
Delta G
SciTegic.value.DoubleValue
4.091

@<SCITEGIC>MOL_PROPERTY
G
SciTegic.value.DoubleValue
-12.907

@<SCITEGIC>MOL_PROPERTY
E
SciTegic.value.DoubleValue
-32.815

@<SCITEGIC>MOL_PROPERTY
-TS
SciTegic.value.DoubleValue
19.907

@<SCITEGIC>MOL_PROPERTY
U+W
SciTegic.value.DoubleValue
-50.700

@<SCITEGIC>MOL_PROPERTY
U
SciTegic.value.DoubleValue
10.295

@<SCITEGIC>MOL_PROPERTY
W
SciTegic.value.DoubleValue
-60.995

@<SCITEGIC>MOL_PROPERTY
W(PB)
SciTegic.value.DoubleValue
-63.272

@<SCITEGIC>MOL_PROPERTY
W(SA)
SciTegic.value.DoubleValue
2.277

@<SCITEGIC>MOL_PROPERTY
Valence
SciTegic.value.DoubleValue
10.075

@<SCITEGIC>MOL_PROPERTY
Coulomb
SciTegic.value.DoubleValue
-0.616

@<SCITEGIC>MOL_PROPERTY
VdW
SciTegic.value.DoubleValue
0.835

@<SCITEGIC>MOL_PROPERTY
VdW6
SciTegic.value.DoubleValue
-8.072

@<SCITEGIC>MOL_PROPERTY
VdW12
SciTegic.value.DoubleValue
8.907

@<SCITEGIC>MOL_PROPERTY
Bond
SciTegic.value.DoubleValue
0.176

@<SCITEGIC>MOL_PROPERTY
Angle
SciTegic.value.DoubleValue
2.976

@<SCITEGIC>MOL_PROPERTY
Pdih
SciTegic.value.DoubleValue
6.922

@<SCITEGIC>MOL_PROPERTY
Idih
SciTegic.value.DoubleValue
0.000

@<SCITEGIC>MOL_PROPERTY
Tether
SciTegic.value.DoubleValue
0.000

@<TRIPOS>MOLECULE
guest-s21_vm2.mol2 : vm2 ligand conformer 51
          22          21           1
SMALL
USER_CHARGES
 
@<TRIPOS>ATOM
       1    C1      19.945196   18.996251   25.499704 C.2        1 MOL1         0.6145
       2    O1      19.413456   19.756714   26.284798 O.co2      1 MOL1        -0.6735
       3    O2      19.919092   17.786621   25.614147 O.co2      1 MOL1        -0.6735
       4    C2      20.713016   19.596550   24.325310 C.3        1 MOL1        -0.1985
       5    H1      21.353626   18.820483   23.891117 H          1 MOL1         0.0740
       6    H2      21.384052   20.362353   24.731284 H          1 MOL1         0.0740
       7    C3      19.808452   20.231763   23.234226 C.3        1 MOL1        -0.1882
       8    H3      19.225184   21.044030   23.689249 H          1 MOL1         0.0742
       9    H4      20.439787   20.704960   22.471087 H          1 MOL1         0.0742
      10    C4      18.830405   19.237833   22.556471 C.3        1 MOL1        -0.1880
      11    H5      18.217806   19.784020   21.827317 H          1 MOL1         0.0742
      12    H6      18.126077   18.860372   23.310320 H          1 MOL1         0.0742
      13    C5      19.500215   18.025784   21.857396 C.3        1 MOL1        -0.1880
      14    H7      19.978663   17.390623   22.614901 H          1 MOL1         0.0742
      15    H8      18.715070   17.405469   21.404503 H          1 MOL1         0.0742
      16    C6      20.542105   18.384817   20.769503 C.3        1 MOL1        -0.1856
      17    H9      20.965428   17.453435   20.369234 H          1 MOL1         0.0742
      18    H10     21.381982   18.932878   21.216497 H          1 MOL1         0.0742
      19    C7      19.948064   19.202667   19.602445 C.3        1 MOL1        -0.2871
      20    H11     19.095335   18.679598   19.150551 H          1 MOL1         0.0754
      21    H12     20.702054   19.360129   18.820498 H          1 MOL1         0.0754
      22    H13     19.607371   20.189466   19.940213 H          1 MOL1         0.0754
@<TRIPOS>BOND
    1     1     2    1
    2     1     3    2
    3     1     4    1
    4     4     5    1
    5     4     6    1
    6     4     7    1
    7     7     8    1
    8     7     9    1
    9     7    10    1
   10    10    11    1
   11    10    12    1
   12    10    13    1
   13    13    14    1
   14    13    15    1
   15    13    16    1
   16    16    17    1
   17    16    18    1
   18    16    19    1
   19    19    20    1
   20    19    21    1
   21    19    22    1
@<TRIPOS>SUBSTRUCTURE
       1 MOL1            1 RESIDUE      1      MOL     
@<SCITEGIC>MOL_PROPERTY
VM2 Rank
SciTegic.value.IntegerValue
51

@<SCITEGIC>MOL_PROPERTY
Conf_Id
SciTegic.value.IntegerValue
369

@<SCITEGIC>MOL_PROPERTY
Probability
SciTegic.value.DoubleValue
0.02

@<SCITEGIC>MOL_PROPERTY
Sum Probability
SciTegic.value.DoubleValue
99.89

@<SCITEGIC>MOL_PROPERTY
Delta G
SciTegic.value.DoubleValue
4.563

@<SCITEGIC>MOL_PROPERTY
G
SciTegic.value.DoubleValue
-12.436

@<SCITEGIC>MOL_PROPERTY
E
SciTegic.value.DoubleValue
-33.139

@<SCITEGIC>MOL_PROPERTY
-TS
SciTegic.value.DoubleValue
20.703

@<SCITEGIC>MOL_PROPERTY
U+W
SciTegic.value.DoubleValue
-51.024

@<SCITEGIC>MOL_PROPERTY
U
SciTegic.value.DoubleValue
10.566

@<SCITEGIC>MOL_PROPERTY
W
SciTegic.value.DoubleValue
-61.589

@<SCITEGIC>MOL_PROPERTY
W(PB)
SciTegic.value.DoubleValue
-63.774

@<SCITEGIC>MOL_PROPERTY
W(SA)
SciTegic.value.DoubleValue
2.185

@<SCITEGIC>MOL_PROPERTY
Valence
SciTegic.value.DoubleValue
8.743

@<SCITEGIC>MOL_PROPERTY
Coulomb
SciTegic.value.DoubleValue
1.384

@<SCITEGIC>MOL_PROPERTY
VdW
SciTegic.value.DoubleValue
0.439

@<SCITEGIC>MOL_PROPERTY
VdW6
SciTegic.value.DoubleValue
-10.218

@<SCITEGIC>MOL_PROPERTY
VdW12
SciTegic.value.DoubleValue
10.656

@<SCITEGIC>MOL_PROPERTY
Bond
SciTegic.value.DoubleValue
0.248

@<SCITEGIC>MOL_PROPERTY
Angle
SciTegic.value.DoubleValue
3.454

@<SCITEGIC>MOL_PROPERTY
Pdih
SciTegic.value.DoubleValue
5.040

@<SCITEGIC>MOL_PROPERTY
Idih
SciTegic.value.DoubleValue
0.001

@<SCITEGIC>MOL_PROPERTY
Tether
SciTegic.value.DoubleValue
0.000

@<TRIPOS>MOLECULE
guest-s21_vm2.mol2 : vm2 ligand conformer 52
          22          21           1
SMALL
USER_CHARGES
 
@<TRIPOS>ATOM
       1    C1      19.932568   19.230397   25.490724 C.2        1 MOL1         0.6145
       2    O1      19.776096   20.435397   25.512470 O.co2      1 MOL1        -0.6735
       3    O2      19.482399   18.479423   26.333819 O.co2      1 MOL1        -0.6735
       4    C2      20.765296   18.628128   24.362478 C.3        1 MOL1        -0.1985
       5    H1      21.513041   17.972116   24.823005 H          1 MOL1         0.0740
       6    H2      21.320608   19.433086   23.867648 H          1 MOL1         0.0740
       7    C3      19.938730   17.817927   23.326834 C.3        1 MOL1        -0.1882
       8    H3      20.620395   17.358405   22.599473 H          1 MOL1         0.0742
       9    H4      19.444242   16.984837   23.844973 H          1 MOL1         0.0742
      10    C4      18.862350   18.646325   22.579180 C.3        1 MOL1        -0.1880
      11    H5      18.118442   19.002388   23.304896 H          1 MOL1         0.0742
      12    H6      18.314998   17.983389   21.896405 H          1 MOL1         0.0742
      13    C5      19.400917   19.866376   21.786818 C.3        1 MOL1        -0.1880
      14    H7      18.555531   20.362339   21.291141 H          1 MOL1         0.0742
      15    H8      19.805246   20.605248   22.491616 H          1 MOL1         0.0742
      16    C6      20.479793   19.539342   20.725204 C.3        1 MOL1        -0.1856
      17    H9      21.371855   19.120438   21.209260 H          1 MOL1         0.0742
      18    H10     20.802223   20.477514   20.253226 H          1 MOL1         0.0742
      19    C7      19.981851   18.575685   19.626474 C.3        1 MOL1        -0.2871
      20    H11     19.747758   17.586689   20.040018 H          1 MOL1         0.0754
      21    H12     20.751600   18.440884   18.855725 H          1 MOL1         0.0754
      22    H13     19.079724   18.968070   19.139486 H          1 MOL1         0.0754
@<TRIPOS>BOND
    1     1     2    1
    2     1     3    2
    3     1     4    1
    4     4     5    1
    5     4     6    1
    6     4     7    1
    7     7     8    1
    8     7     9    1
    9     7    10    1
   10    10    11    1
   11    10    12    1
   12    10    13    1
   13    13    14    1
   14    13    15    1
   15    13    16    1
   16    16    17    1
   17    16    18    1
   18    16    19    1
   19    19    20    1
   20    19    21    1
   21    19    22    1
@<TRIPOS>SUBSTRUCTURE
       1 MOL1            1 RESIDUE      1      MOL     
@<SCITEGIC>MOL_PROPERTY
VM2 Rank
SciTegic.value.IntegerValue
52

@<SCITEGIC>MOL_PROPERTY
Conf_Id
SciTegic.value.IntegerValue
346

@<SCITEGIC>MOL_PROPERTY
Probability
SciTegic.value.DoubleValue
0.01

@<SCITEGIC>MOL_PROPERTY
Sum Probability
SciTegic.value.DoubleValue
99.90

@<SCITEGIC>MOL_PROPERTY
Delta G
SciTegic.value.DoubleValue
4.595

@<SCITEGIC>MOL_PROPERTY
G
SciTegic.value.DoubleValue
-12.404

@<SCITEGIC>MOL_PROPERTY
E
SciTegic.value.DoubleValue
-33.107

@<SCITEGIC>MOL_PROPERTY
-TS
SciTegic.value.DoubleValue
20.703

@<SCITEGIC>MOL_PROPERTY
U+W
SciTegic.value.DoubleValue
-50.992

@<SCITEGIC>MOL_PROPERTY
U
SciTegic.value.DoubleValue
10.566

@<SCITEGIC>MOL_PROPERTY
W
SciTegic.value.DoubleValue
-61.558

@<SCITEGIC>MOL_PROPERTY
W(PB)
SciTegic.value.DoubleValue
-63.746

@<SCITEGIC>MOL_PROPERTY
W(SA)
SciTegic.value.DoubleValue
2.188

@<SCITEGIC>MOL_PROPERTY
Valence
SciTegic.value.DoubleValue
8.743

@<SCITEGIC>MOL_PROPERTY
Coulomb
SciTegic.value.DoubleValue
1.384

@<SCITEGIC>MOL_PROPERTY
VdW
SciTegic.value.DoubleValue
0.439

@<SCITEGIC>MOL_PROPERTY
VdW6
SciTegic.value.DoubleValue
-10.218

@<SCITEGIC>MOL_PROPERTY
VdW12
SciTegic.value.DoubleValue
10.656

@<SCITEGIC>MOL_PROPERTY
Bond
SciTegic.value.DoubleValue
0.248

@<SCITEGIC>MOL_PROPERTY
Angle
SciTegic.value.DoubleValue
3.454

@<SCITEGIC>MOL_PROPERTY
Pdih
SciTegic.value.DoubleValue
5.040

@<SCITEGIC>MOL_PROPERTY
Idih
SciTegic.value.DoubleValue
0.001

@<SCITEGIC>MOL_PROPERTY
Tether
SciTegic.value.DoubleValue
0.000

@<TRIPOS>MOLECULE
guest-s21_vm2.mol2 : vm2 ligand conformer 53
          22          21           1
SMALL
USER_CHARGES
 
@<TRIPOS>ATOM
       1    C1      20.177236   18.938200   25.300871 C.2        1 MOL1         0.6145
       2    O1      20.459678   20.036903   25.737488 O.co2      1 MOL1        -0.6735
       3    O2      20.959468   18.008596   25.268962 O.co2      1 MOL1        -0.6735
       4    C2      18.744834   18.690628   24.831364 C.3        1 MOL1        -0.1985
       5    H1      18.105194   18.815684   25.712678 H          1 MOL1         0.0740
       6    H2      18.648168   17.643681   24.519251 H          1 MOL1         0.0740
       7    C3      18.243431   19.636406   23.703922 C.3        1 MOL1        -0.1882
       8    H3      17.145315   19.613791   23.705032 H          1 MOL1         0.0742
       9    H4      18.524451   20.673772   23.932867 H          1 MOL1         0.0742
      10    C4      18.722009   19.258106   22.280250 C.3        1 MOL1        -0.1880
      11    H5      18.194542   19.897696   21.559576 H          1 MOL1         0.0742
      12    H6      18.420289   18.226045   22.058125 H          1 MOL1         0.0742
      13    C5      20.246191   19.419058   22.066351 C.3        1 MOL1        -0.1880
      14    H7      20.563195   20.397491   22.452514 H          1 MOL1         0.0742
      15    H8      20.788207   18.662192   22.647616 H          1 MOL1         0.0742
      16    C6      20.669359   19.311456   20.582849 C.3        1 MOL1        -0.1856
      17    H9      21.743430   19.529544   20.505625 H          1 MOL1         0.0742
      18    H10     20.153184   20.081124   19.992614 H          1 MOL1         0.0742
      19    C7      20.397795   17.919647   19.971943 C.3        1 MOL1        -0.2871
      20    H11     20.884238   17.131105   20.560836 H          1 MOL1         0.0754
      21    H12     20.788346   17.866734   18.947480 H          1 MOL1         0.0754
      22    H13     19.322705   17.704400   19.929924 H          1 MOL1         0.0754
@<TRIPOS>BOND
    1     1     2    1
    2     1     3    2
    3     1     4    1
    4     4     5    1
    5     4     6    1
    6     4     7    1
    7     7     8    1
    8     7     9    1
    9     7    10    1
   10    10    11    1
   11    10    12    1
   12    10    13    1
   13    13    14    1
   14    13    15    1
   15    13    16    1
   16    16    17    1
   17    16    18    1
   18    16    19    1
   19    19    20    1
   20    19    21    1
   21    19    22    1
@<TRIPOS>SUBSTRUCTURE
       1 MOL1            1 RESIDUE      1      MOL     
@<SCITEGIC>MOL_PROPERTY
VM2 Rank
SciTegic.value.IntegerValue
53

@<SCITEGIC>MOL_PROPERTY
Conf_Id
SciTegic.value.IntegerValue
487

@<SCITEGIC>MOL_PROPERTY
Probability
SciTegic.value.DoubleValue
0.01

@<SCITEGIC>MOL_PROPERTY
Sum Probability
SciTegic.value.DoubleValue
99.91

@<SCITEGIC>MOL_PROPERTY
Delta G
SciTegic.value.DoubleValue
4.684

@<SCITEGIC>MOL_PROPERTY
G
SciTegic.value.DoubleValue
-12.315

@<SCITEGIC>MOL_PROPERTY
E
SciTegic.value.DoubleValue
-32.675

@<SCITEGIC>MOL_PROPERTY
-TS
SciTegic.value.DoubleValue
20.361

@<SCITEGIC>MOL_PROPERTY
U+W
SciTegic.value.DoubleValue
-50.560

@<SCITEGIC>MOL_PROPERTY
U
SciTegic.value.DoubleValue
11.686

@<SCITEGIC>MOL_PROPERTY
W
SciTegic.value.DoubleValue
-62.246

@<SCITEGIC>MOL_PROPERTY
W(PB)
SciTegic.value.DoubleValue
-64.461

@<SCITEGIC>MOL_PROPERTY
W(SA)
SciTegic.value.DoubleValue
2.214

@<SCITEGIC>MOL_PROPERTY
Valence
SciTegic.value.DoubleValue
9.470

@<SCITEGIC>MOL_PROPERTY
Coulomb
SciTegic.value.DoubleValue
1.563

@<SCITEGIC>MOL_PROPERTY
VdW
SciTegic.value.DoubleValue
0.654

@<SCITEGIC>MOL_PROPERTY
VdW6
SciTegic.value.DoubleValue
-9.495

@<SCITEGIC>MOL_PROPERTY
VdW12
SciTegic.value.DoubleValue
10.148

@<SCITEGIC>MOL_PROPERTY
Bond
SciTegic.value.DoubleValue
0.216

@<SCITEGIC>MOL_PROPERTY
Angle
SciTegic.value.DoubleValue
3.352

@<SCITEGIC>MOL_PROPERTY
Pdih
SciTegic.value.DoubleValue
5.895

@<SCITEGIC>MOL_PROPERTY
Idih
SciTegic.value.DoubleValue
0.007

@<SCITEGIC>MOL_PROPERTY
Tether
SciTegic.value.DoubleValue
0.000

@<TRIPOS>MOLECULE
guest-s21_vm2.mol2 : vm2 ligand conformer 54
          22          21           1
SMALL
USER_CHARGES
 
@<TRIPOS>ATOM
       1    C1      20.157793   19.297788   25.287010 C.2        1 MOL1         0.6145
       2    O1      20.835289   20.301192   25.180960 O.co2      1 MOL1        -0.6735
       3    O2      20.555341   18.272517   25.805013 O.co2      1 MOL1        -0.6735
       4    C2      18.708962   19.352909   24.806016 C.3        1 MOL1        -0.1985
       5    H1      18.501226   20.356440   24.415338 H          1 MOL1         0.0740
       6    H2      18.082970   19.227230   25.696988 H          1 MOL1         0.0740
       7    C3      18.317048   18.275316   23.756148 C.3        1 MOL1        -0.1882
       8    H3      18.707255   17.294791   24.062457 H          1 MOL1         0.0742
       9    H4      17.222894   18.179504   23.760066 H          1 MOL1         0.0742
      10    C4      18.757962   18.593192   22.305789 C.3        1 MOL1        -0.1880
      11    H5      18.347859   19.566828   22.006839 H          1 MOL1         0.0742
      12    H6      18.305325   17.847461   21.638201 H          1 MOL1         0.0742
      13    C5      20.291476   18.581309   22.098459 C.3        1 MOL1        -0.1880
      14    H7      20.746548   19.434175   22.618098 H          1 MOL1         0.0742
      15    H8      20.710318   17.674949   22.556745 H          1 MOL1         0.0742
      16    C6      20.706681   18.620445   20.609333 C.3        1 MOL1        -0.1856
      17    H9      20.278739   17.756980   20.081605 H          1 MOL1         0.0742
      18    H10     21.798289   18.513940   20.544509 H          1 MOL1         0.0742
      19    C7      20.289449   19.924332   19.895272 C.3        1 MOL1        -0.2871
      20    H11     20.685750   20.803206   20.420385 H          1 MOL1         0.0754
      21    H12     19.197622   20.018793   19.841363 H          1 MOL1         0.0754
      22    H13     20.676291   19.940764   18.868171 H          1 MOL1         0.0754
@<TRIPOS>BOND
    1     1     2    1
    2     1     3    2
    3     1     4    1
    4     4     5    1
    5     4     6    1
    6     4     7    1
    7     7     8    1
    8     7     9    1
    9     7    10    1
   10    10    11    1
   11    10    12    1
   12    10    13    1
   13    13    14    1
   14    13    15    1
   15    13    16    1
   16    16    17    1
   17    16    18    1
   18    16    19    1
   19    19    20    1
   20    19    21    1
   21    19    22    1
@<TRIPOS>SUBSTRUCTURE
       1 MOL1            1 RESIDUE      1      MOL     
@<SCITEGIC>MOL_PROPERTY
VM2 Rank
SciTegic.value.IntegerValue
54

@<SCITEGIC>MOL_PROPERTY
Conf_Id
SciTegic.value.IntegerValue
355

@<SCITEGIC>MOL_PROPERTY
Probability
SciTegic.value.DoubleValue
0.01

@<SCITEGIC>MOL_PROPERTY
Sum Probability
SciTegic.value.DoubleValue
99.93

@<SCITEGIC>MOL_PROPERTY
Delta G
SciTegic.value.DoubleValue
4.731

@<SCITEGIC>MOL_PROPERTY
G
SciTegic.value.DoubleValue
-12.268

@<SCITEGIC>MOL_PROPERTY
E
SciTegic.value.DoubleValue
-32.628

@<SCITEGIC>MOL_PROPERTY
-TS
SciTegic.value.DoubleValue
20.360

@<SCITEGIC>MOL_PROPERTY
U+W
SciTegic.value.DoubleValue
-50.513

@<SCITEGIC>MOL_PROPERTY
U
SciTegic.value.DoubleValue
11.687

@<SCITEGIC>MOL_PROPERTY
W
SciTegic.value.DoubleValue
-62.200

@<SCITEGIC>MOL_PROPERTY
W(PB)
SciTegic.value.DoubleValue
-64.428

@<SCITEGIC>MOL_PROPERTY
W(SA)
SciTegic.value.DoubleValue
2.228

@<SCITEGIC>MOL_PROPERTY
Valence
SciTegic.value.DoubleValue
9.470

@<SCITEGIC>MOL_PROPERTY
Coulomb
SciTegic.value.DoubleValue
1.563

@<SCITEGIC>MOL_PROPERTY
VdW
SciTegic.value.DoubleValue
0.654

@<SCITEGIC>MOL_PROPERTY
VdW6
SciTegic.value.DoubleValue
-9.495

@<SCITEGIC>MOL_PROPERTY
VdW12
SciTegic.value.DoubleValue
10.148

@<SCITEGIC>MOL_PROPERTY
Bond
SciTegic.value.DoubleValue
0.216

@<SCITEGIC>MOL_PROPERTY
Angle
SciTegic.value.DoubleValue
3.352

@<SCITEGIC>MOL_PROPERTY
Pdih
SciTegic.value.DoubleValue
5.895

@<SCITEGIC>MOL_PROPERTY
Idih
SciTegic.value.DoubleValue
0.007

@<SCITEGIC>MOL_PROPERTY
Tether
SciTegic.value.DoubleValue
0.000

@<TRIPOS>MOLECULE
guest-s21_vm2.mol2 : vm2 ligand conformer 55
          22          21           1
SMALL
USER_CHARGES
 
@<TRIPOS>ATOM
       1    C1      19.499398   18.939530   25.382749 C.2        1 MOL1         0.6145
       2    O1      18.339995   19.298818   25.444476 O.co2      1 MOL1        -0.6735
       3    O2      19.878659   17.837597   25.728225 O.co2      1 MOL1        -0.6735
       4    C2      20.542293   19.950441   24.909689 C.3        1 MOL1        -0.1985
       5    H1      21.204313   20.131775   25.764316 H          1 MOL1         0.0740
       6    H2      20.043572   20.902661   24.692022 H          1 MOL1         0.0740
       7    C3      21.399762   19.500529   23.693170 C.3        1 MOL1        -0.1882
       8    H3      22.323308   20.095074   23.692866 H          1 MOL1         0.0742
       9    H4      21.714092   18.455398   23.821406 H          1 MOL1         0.0742
      10    C4      20.721463   19.685742   22.312797 C.3        1 MOL1        -0.1880
      11    H5      21.479387   19.499031   21.541754 H          1 MOL1         0.0742
      12    H6      20.408929   20.731811   22.192101 H          1 MOL1         0.0742
      13    C5      19.511236   18.750502   22.074891 C.3        1 MOL1        -0.1880
      14    H7      19.805055   17.707185   22.253617 H          1 MOL1         0.0742
      15    H8      18.725153   18.982912   22.803556 H          1 MOL1         0.0742
      16    C6      18.899200   18.883316   20.660577 C.3        1 MOL1        -0.1856
      17    H9      18.627621   19.930807   20.470185 H          1 MOL1         0.0742
      18    H10     17.962456   18.309945   20.629236 H          1 MOL1         0.0742
      19    C7      19.827994   18.372525   19.537426 C.3        1 MOL1        -0.2871
      20    H11     20.727840   18.993060   19.445653 H          1 MOL1         0.0754
      21    H12     19.309075   18.397005   18.570460 H          1 MOL1         0.0754
      22    H13     20.140576   17.337336   19.726605 H          1 MOL1         0.0754
@<TRIPOS>BOND
    1     1     2    1
    2     1     3    2
    3     1     4    1
    4     4     5    1
    5     4     6    1
    6     4     7    1
    7     7     8    1
    8     7     9    1
    9     7    10    1
   10    10    11    1
   11    10    12    1
   12    10    13    1
   13    13    14    1
   14    13    15    1
   15    13    16    1
   16    16    17    1
   17    16    18    1
   18    16    19    1
   19    19    20    1
   20    19    21    1
   21    19    22    1
@<TRIPOS>SUBSTRUCTURE
       1 MOL1            1 RESIDUE      1      MOL     
@<SCITEGIC>MOL_PROPERTY
VM2 Rank
SciTegic.value.IntegerValue
55

@<SCITEGIC>MOL_PROPERTY
Conf_Id
SciTegic.value.IntegerValue
555

@<SCITEGIC>MOL_PROPERTY
Probability
SciTegic.value.DoubleValue
0.01

@<SCITEGIC>MOL_PROPERTY
Sum Probability
SciTegic.value.DoubleValue
99.94

@<SCITEGIC>MOL_PROPERTY
Delta G
SciTegic.value.DoubleValue
4.759

@<SCITEGIC>MOL_PROPERTY
G
SciTegic.value.DoubleValue
-12.239

@<SCITEGIC>MOL_PROPERTY
E
SciTegic.value.DoubleValue
-32.431

@<SCITEGIC>MOL_PROPERTY
-TS
SciTegic.value.DoubleValue
20.192

@<SCITEGIC>MOL_PROPERTY
U+W
SciTegic.value.DoubleValue
-50.316

@<SCITEGIC>MOL_PROPERTY
U
SciTegic.value.DoubleValue
11.648

@<SCITEGIC>MOL_PROPERTY
W
SciTegic.value.DoubleValue
-61.964

@<SCITEGIC>MOL_PROPERTY
W(PB)
SciTegic.value.DoubleValue
-64.186

@<SCITEGIC>MOL_PROPERTY
W(SA)
SciTegic.value.DoubleValue
2.222

@<SCITEGIC>MOL_PROPERTY
Valence
SciTegic.value.DoubleValue
9.667

@<SCITEGIC>MOL_PROPERTY
Coulomb
SciTegic.value.DoubleValue
1.201

@<SCITEGIC>MOL_PROPERTY
VdW
SciTegic.value.DoubleValue
0.779

@<SCITEGIC>MOL_PROPERTY
VdW6
SciTegic.value.DoubleValue
-9.278

@<SCITEGIC>MOL_PROPERTY
VdW12
SciTegic.value.DoubleValue
10.057

@<SCITEGIC>MOL_PROPERTY
Bond
SciTegic.value.DoubleValue
0.225

@<SCITEGIC>MOL_PROPERTY
Angle
SciTegic.value.DoubleValue
3.506

@<SCITEGIC>MOL_PROPERTY
Pdih
SciTegic.value.DoubleValue
5.930

@<SCITEGIC>MOL_PROPERTY
Idih
SciTegic.value.DoubleValue
0.006

@<SCITEGIC>MOL_PROPERTY
Tether
SciTegic.value.DoubleValue
0.000

@<TRIPOS>MOLECULE
guest-s21_vm2.mol2 : vm2 ligand conformer 56
          22          21           1
SMALL
USER_CHARGES
 
@<TRIPOS>ATOM
       1    C1      19.483982   19.230499   25.371550 C.2        1 MOL1         0.6145
       2    O1      19.743755   20.389347   25.630475 O.co2      1 MOL1        -0.6735
       3    O2      18.368575   18.756961   25.465060 O.co2      1 MOL1        -0.6735
       4    C2      20.629452   18.301899   24.972851 C.3        1 MOL1        -0.1985
       5    H1      20.234667   17.288641   24.830459 H          1 MOL1         0.0740
       6    H2      21.303389   18.257021   25.836181 H          1 MOL1         0.0740
       7    C3      21.439741   18.745484   23.722147 C.3        1 MOL1        -0.1882
       8    H3      21.641605   19.824653   23.768958 H          1 MOL1         0.0742
       9    H4      22.420813   18.253345   23.763592 H          1 MOL1         0.0742
      10    C4      20.790465   18.384950   22.362632 C.3        1 MOL1        -0.1880
      11    H5      20.590775   17.305561   22.323268 H          1 MOL1         0.0742
      12    H6      21.527540   18.591441   21.576566 H          1 MOL1         0.0742
      13    C5      19.489109   19.166111   22.059019 C.3        1 MOL1        -0.1880
      14    H7      18.729004   18.907939   22.806339 H          1 MOL1         0.0742
      15    H8      19.670179   20.245211   22.156707 H          1 MOL1         0.0742
      16    C6      18.900428   18.862108   20.661325 C.3        1 MOL1        -0.1856
      17    H9      17.908338   19.328937   20.590222 H          1 MOL1         0.0742
      18    H10     18.742160   17.780315   20.552157 H          1 MOL1         0.0742
      19    C7      19.774492   19.381641   19.498941 C.3        1 MOL1        -0.2871
      20    H11     19.265152   19.228778   18.538676 H          1 MOL1         0.0754
      21    H12     20.735468   18.854909   19.451114 H          1 MOL1         0.0754
      22    H13     19.974698   20.455524   19.607601 H          1 MOL1         0.0754
@<TRIPOS>BOND
    1     1     2    1
    2     1     3    2
    3     1     4    1
    4     4     5    1
    5     4     6    1
    6     4     7    1
    7     7     8    1
    8     7     9    1
    9     7    10    1
   10    10    11    1
   11    10    12    1
   12    10    13    1
   13    13    14    1
   14    13    15    1
   15    13    16    1
   16    16    17    1
   17    16    18    1
   18    16    19    1
   19    19    20    1
   20    19    21    1
   21    19    22    1
@<TRIPOS>SUBSTRUCTURE
       1 MOL1            1 RESIDUE      1      MOL     
@<SCITEGIC>MOL_PROPERTY
VM2 Rank
SciTegic.value.IntegerValue
56

@<SCITEGIC>MOL_PROPERTY
Conf_Id
SciTegic.value.IntegerValue
510

@<SCITEGIC>MOL_PROPERTY
Probability
SciTegic.value.DoubleValue
0.01

@<SCITEGIC>MOL_PROPERTY
Sum Probability
SciTegic.value.DoubleValue
99.95

@<SCITEGIC>MOL_PROPERTY
Delta G
SciTegic.value.DoubleValue
4.799

@<SCITEGIC>MOL_PROPERTY
G
SciTegic.value.DoubleValue
-12.199

@<SCITEGIC>MOL_PROPERTY
E
SciTegic.value.DoubleValue
-32.393

@<SCITEGIC>MOL_PROPERTY
-TS
SciTegic.value.DoubleValue
20.193

@<SCITEGIC>MOL_PROPERTY
U+W
SciTegic.value.DoubleValue
-50.278

@<SCITEGIC>MOL_PROPERTY
U
SciTegic.value.DoubleValue
11.648

@<SCITEGIC>MOL_PROPERTY
W
SciTegic.value.DoubleValue
-61.925

@<SCITEGIC>MOL_PROPERTY
W(PB)
SciTegic.value.DoubleValue
-64.166

@<SCITEGIC>MOL_PROPERTY
W(SA)
SciTegic.value.DoubleValue
2.241

@<SCITEGIC>MOL_PROPERTY
Valence
SciTegic.value.DoubleValue
9.667

@<SCITEGIC>MOL_PROPERTY
Coulomb
SciTegic.value.DoubleValue
1.201

@<SCITEGIC>MOL_PROPERTY
VdW
SciTegic.value.DoubleValue
0.779

@<SCITEGIC>MOL_PROPERTY
VdW6
SciTegic.value.DoubleValue
-9.278

@<SCITEGIC>MOL_PROPERTY
VdW12
SciTegic.value.DoubleValue
10.057

@<SCITEGIC>MOL_PROPERTY
Bond
SciTegic.value.DoubleValue
0.225

@<SCITEGIC>MOL_PROPERTY
Angle
SciTegic.value.DoubleValue
3.506

@<SCITEGIC>MOL_PROPERTY
Pdih
SciTegic.value.DoubleValue
5.931

@<SCITEGIC>MOL_PROPERTY
Idih
SciTegic.value.DoubleValue
0.006

@<SCITEGIC>MOL_PROPERTY
Tether
SciTegic.value.DoubleValue
0.000

@<TRIPOS>MOLECULE
guest-s21_vm2.mol2 : vm2 ligand conformer 57
          22          21           1
SMALL
USER_CHARGES
 
@<TRIPOS>ATOM
       1    C1      20.220576   19.161668   25.673458 C.2        1 MOL1         0.6145
       2    O1      20.191656   20.227749   26.255893 O.co2      1 MOL1        -0.6735
       3    O2      20.297747   18.088563   26.238343 O.co2      1 MOL1        -0.6735
       4    C2      20.133622   19.170095   24.151512 C.3        1 MOL1        -0.1985
       5    H1      20.723765   18.324510   23.780975 H          1 MOL1         0.0740
       6    H2      20.608450   20.089092   23.787720 H          1 MOL1         0.0740
       7    C3      18.676341   19.078442   23.632780 C.3        1 MOL1        -0.1882
       8    H3      18.241910   18.117477   23.941041 H          1 MOL1         0.0742
       9    H4      18.078179   19.858014   24.124574 H          1 MOL1         0.0742
      10    C4      18.535518   19.245476   22.098903 C.3        1 MOL1        -0.1880
      11    H5      18.879022   20.243872   21.801088 H          1 MOL1         0.0742
      12    H6      17.463554   19.217302   21.860584 H          1 MOL1         0.0742
      13    C5      19.242787   18.144896   21.264114 C.3        1 MOL1        -0.1880
      14    H7      19.288019   17.215874   21.848582 H          1 MOL1         0.0742
      15    H8      18.623841   17.912258   20.386830 H          1 MOL1         0.0742
      16    C6      20.663761   18.515141   20.770608 C.3        1 MOL1        -0.1856
      17    H9      21.144942   17.608820   20.378113 H          1 MOL1         0.0742
      18    H10     21.287235   18.856906   21.605502 H          1 MOL1         0.0742
      19    C7      20.657992   19.586969   19.658389 C.3        1 MOL1        -0.2871
      20    H11     20.047075   19.264329   18.805313 H          1 MOL1         0.0754
      21    H12     21.677636   19.766066   19.293522 H          1 MOL1         0.0754
      22    H13     20.262103   20.543445   20.020791 H          1 MOL1         0.0754
@<TRIPOS>BOND
    1     1     2    1
    2     1     3    2
    3     1     4    1
    4     4     5    1
    5     4     6    1
    6     4     7    1
    7     7     8    1
    8     7     9    1
    9     7    10    1
   10    10    11    1
   11    10    12    1
   12    10    13    1
   13    13    14    1
   14    13    15    1
   15    13    16    1
   16    16    17    1
   17    16    18    1
   18    16    19    1
   19    19    20    1
   20    19    21    1
   21    19    22    1
@<TRIPOS>SUBSTRUCTURE
       1 MOL1            1 RESIDUE      1      MOL     
@<SCITEGIC>MOL_PROPERTY
VM2 Rank
SciTegic.value.IntegerValue
57

@<SCITEGIC>MOL_PROPERTY
Conf_Id
SciTegic.value.IntegerValue
361

@<SCITEGIC>MOL_PROPERTY
Probability
SciTegic.value.DoubleValue
0.01

@<SCITEGIC>MOL_PROPERTY
Sum Probability
SciTegic.value.DoubleValue
99.96

@<SCITEGIC>MOL_PROPERTY
Delta G
SciTegic.value.DoubleValue
4.834

@<SCITEGIC>MOL_PROPERTY
G
SciTegic.value.DoubleValue
-12.165

@<SCITEGIC>MOL_PROPERTY
E
SciTegic.value.DoubleValue
-32.168

@<SCITEGIC>MOL_PROPERTY
-TS
SciTegic.value.DoubleValue
20.003

@<SCITEGIC>MOL_PROPERTY
U+W
SciTegic.value.DoubleValue
-50.053

@<SCITEGIC>MOL_PROPERTY
U
SciTegic.value.DoubleValue
11.011

@<SCITEGIC>MOL_PROPERTY
W
SciTegic.value.DoubleValue
-61.064

@<SCITEGIC>MOL_PROPERTY
W(PB)
SciTegic.value.DoubleValue
-63.296

@<SCITEGIC>MOL_PROPERTY
W(SA)
SciTegic.value.DoubleValue
2.232

@<SCITEGIC>MOL_PROPERTY
Valence
SciTegic.value.DoubleValue
10.805

@<SCITEGIC>MOL_PROPERTY
Coulomb
SciTegic.value.DoubleValue
-0.761

@<SCITEGIC>MOL_PROPERTY
VdW
SciTegic.value.DoubleValue
0.967

@<SCITEGIC>MOL_PROPERTY
VdW6
SciTegic.value.DoubleValue
-8.670

@<SCITEGIC>MOL_PROPERTY
VdW12
SciTegic.value.DoubleValue
9.637

@<SCITEGIC>MOL_PROPERTY
Bond
SciTegic.value.DoubleValue
0.224

@<SCITEGIC>MOL_PROPERTY
Angle
SciTegic.value.DoubleValue
3.241

@<SCITEGIC>MOL_PROPERTY
Pdih
SciTegic.value.DoubleValue
7.339

@<SCITEGIC>MOL_PROPERTY
Idih
SciTegic.value.DoubleValue
0.001

@<SCITEGIC>MOL_PROPERTY
Tether
SciTegic.value.DoubleValue
0.000

@<TRIPOS>MOLECULE
guest-s21_vm2.mol2 : vm2 ligand conformer 58
          22          21           1
SMALL
USER_CHARGES
 
@<TRIPOS>ATOM
       1    C1      19.613005   18.774410   25.563536 C.2        1 MOL1         0.6145
       2    O1      19.250157   19.534925   26.439129 O.co2      1 MOL1        -0.6735
       3    O2      20.211117   17.738577   25.777658 O.co2      1 MOL1        -0.6735
       4    C2      19.319583   19.151226   24.115874 C.3        1 MOL1        -0.1985
       5    H1      18.376749   19.710586   24.096252 H          1 MOL1         0.0740
       6    H2      19.153597   18.224907   23.558163 H          1 MOL1         0.0740
       7    C3      20.452578   19.994763   23.474238 C.3        1 MOL1        -0.1882
       8    H3      20.589753   20.895372   24.088657 H          1 MOL1         0.0742
       9    H4      21.403644   19.446603   23.520198 H          1 MOL1         0.0742
      10    C4      20.155272   20.434264   22.017536 C.3        1 MOL1        -0.1880
      11    H5      20.594750   21.430506   21.872142 H          1 MOL1         0.0742
      12    H6      19.075881   20.567301   21.867630 H          1 MOL1         0.0742
      13    C5      20.751421   19.508249   20.924673 C.3        1 MOL1        -0.1880
      14    H7      20.594528   19.979193   19.944727 H          1 MOL1         0.0742
      15    H8      21.840218   19.456380   21.060667 H          1 MOL1         0.0742
      16    C6      20.188869   18.068064   20.873420 C.3        1 MOL1        -0.1856
      17    H9      20.400061   17.545505   21.814896 H          1 MOL1         0.0742
      18    H10     20.728181   17.511577   20.094694 H          1 MOL1         0.0742
      19    C7      18.677999   18.014523   20.557936 C.3        1 MOL1        -0.2871
      20    H11     18.340785   16.973826   20.468933 H          1 MOL1         0.0754
      21    H12     18.457722   18.523626   19.610731 H          1 MOL1         0.0754
      22    H13     18.085008   18.490852   21.348127 H          1 MOL1         0.0754
@<TRIPOS>BOND
    1     1     2    1
    2     1     3    2
    3     1     4    1
    4     4     5    1
    5     4     6    1
    6     4     7    1
    7     7     8    1
    8     7     9    1
    9     7    10    1
   10    10    11    1
   11    10    12    1
   12    10    13    1
   13    13    14    1
   14    13    15    1
   15    13    16    1
   16    16    17    1
   17    16    18    1
   18    16    19    1
   19    19    20    1
   20    19    21    1
   21    19    22    1
@<TRIPOS>SUBSTRUCTURE
       1 MOL1            1 RESIDUE      1      MOL     
@<SCITEGIC>MOL_PROPERTY
VM2 Rank
SciTegic.value.IntegerValue
58

@<SCITEGIC>MOL_PROPERTY
Conf_Id
SciTegic.value.IntegerValue
189

@<SCITEGIC>MOL_PROPERTY
Probability
SciTegic.value.DoubleValue
0.01

@<SCITEGIC>MOL_PROPERTY
Sum Probability
SciTegic.value.DoubleValue
99.96

@<SCITEGIC>MOL_PROPERTY
Delta G
SciTegic.value.DoubleValue
5.108

@<SCITEGIC>MOL_PROPERTY
G
SciTegic.value.DoubleValue
-11.890

@<SCITEGIC>MOL_PROPERTY
E
SciTegic.value.DoubleValue
-32.266

@<SCITEGIC>MOL_PROPERTY
-TS
SciTegic.value.DoubleValue
20.376

@<SCITEGIC>MOL_PROPERTY
U+W
SciTegic.value.DoubleValue
-50.151

@<SCITEGIC>MOL_PROPERTY
U
SciTegic.value.DoubleValue
11.249

@<SCITEGIC>MOL_PROPERTY
W
SciTegic.value.DoubleValue
-61.400

@<SCITEGIC>MOL_PROPERTY
W(PB)
SciTegic.value.DoubleValue
-63.599

@<SCITEGIC>MOL_PROPERTY
W(SA)
SciTegic.value.DoubleValue
2.199

@<SCITEGIC>MOL_PROPERTY
Valence
SciTegic.value.DoubleValue
10.690

@<SCITEGIC>MOL_PROPERTY
Coulomb
SciTegic.value.DoubleValue
-0.062

@<SCITEGIC>MOL_PROPERTY
VdW
SciTegic.value.DoubleValue
0.621

@<SCITEGIC>MOL_PROPERTY
VdW6
SciTegic.value.DoubleValue
-9.203

@<SCITEGIC>MOL_PROPERTY
VdW12
SciTegic.value.DoubleValue
9.824

@<SCITEGIC>MOL_PROPERTY
Bond
SciTegic.value.DoubleValue
0.231

@<SCITEGIC>MOL_PROPERTY
Angle
SciTegic.value.DoubleValue
3.570

@<SCITEGIC>MOL_PROPERTY
Pdih
SciTegic.value.DoubleValue
6.889

@<SCITEGIC>MOL_PROPERTY
Idih
SciTegic.value.DoubleValue
0.001

@<SCITEGIC>MOL_PROPERTY
Tether
SciTegic.value.DoubleValue
0.000

@<TRIPOS>MOLECULE
guest-s21_vm2.mol2 : vm2 ligand conformer 59
          22          21           1
SMALL
USER_CHARGES
 
@<TRIPOS>ATOM
       1    C1      19.578287   19.419570   25.538815 C.2        1 MOL1         0.6145
       2    O1      20.061022   20.526859   25.670792 O.co2      1 MOL1        -0.6735
       3    O2      19.295463   18.693602   26.471385 O.co2      1 MOL1        -0.6735
       4    C2      19.332920   18.904080   24.125352 C.3        1 MOL1        -0.1985
       5    H1      19.070962   19.761988   23.499225 H          1 MOL1         0.0740
       6    H2      18.455528   18.247070   24.152333 H          1 MOL1         0.0740
       7    C3      20.552417   18.140276   23.545387 C.3        1 MOL1        -0.1882
       8    H3      21.439063   18.789103   23.545425 H          1 MOL1         0.0742
       9    H4      20.782790   17.309143   24.226249 H          1 MOL1         0.0742
      10    C4      20.309921   17.561439   22.127756 C.3        1 MOL1        -0.1880
      11    H5      19.251636   17.302407   21.992895 H          1 MOL1         0.0742
      12    H6      20.854247   16.609864   22.057093 H          1 MOL1         0.0742
      13    C5      20.807864   18.459803   20.964897 C.3        1 MOL1        -0.1880
      14    H7      21.884249   18.638363   21.092079 H          1 MOL1         0.0742
      15    H8      20.706435   17.901251   20.024455 H          1 MOL1         0.0742
      16    C6      20.094347   19.823208   20.806027 C.3        1 MOL1        -0.1856
      17    H9      20.574083   20.373150   19.984830 H          1 MOL1         0.0742
      18    H10     20.244410   20.435829   21.703927 H          1 MOL1         0.0742
      19    C7      18.587759   19.690163   20.493589 C.3        1 MOL1        -0.2871
      20    H11     18.046004   19.214822   21.320318 H          1 MOL1         0.0754
      21    H12     18.427248   19.089450   19.588998 H          1 MOL1         0.0754
      22    H13     18.141276   20.678835   20.326659 H          1 MOL1         0.0754
@<TRIPOS>BOND
    1     1     2    1
    2     1     3    2
    3     1     4    1
    4     4     5    1
    5     4     6    1
    6     4     7    1
    7     7     8    1
    8     7     9    1
    9     7    10    1
   10    10    11    1
   11    10    12    1
   12    10    13    1
   13    13    14    1
   14    13    15    1
   15    13    16    1
   16    16    17    1
   17    16    18    1
   18    16    19    1
   19    19    20    1
   20    19    21    1
   21    19    22    1
@<TRIPOS>SUBSTRUCTURE
       1 MOL1            1 RESIDUE      1      MOL     
@<SCITEGIC>MOL_PROPERTY
VM2 Rank
SciTegic.value.IntegerValue
59

@<SCITEGIC>MOL_PROPERTY
Conf_Id
SciTegic.value.IntegerValue
535

@<SCITEGIC>MOL_PROPERTY
Probability
SciTegic.value.DoubleValue
0.01

@<SCITEGIC>MOL_PROPERTY
Sum Probability
SciTegic.value.DoubleValue
99.97

@<SCITEGIC>MOL_PROPERTY
Delta G
SciTegic.value.DoubleValue
5.183

@<SCITEGIC>MOL_PROPERTY
G
SciTegic.value.DoubleValue
-11.815

@<SCITEGIC>MOL_PROPERTY
E
SciTegic.value.DoubleValue
-32.191

@<SCITEGIC>MOL_PROPERTY
-TS
SciTegic.value.DoubleValue
20.376

@<SCITEGIC>MOL_PROPERTY
U+W
SciTegic.value.DoubleValue
-50.076

@<SCITEGIC>MOL_PROPERTY
U
SciTegic.value.DoubleValue
11.249

@<SCITEGIC>MOL_PROPERTY
W
SciTegic.value.DoubleValue
-61.325

@<SCITEGIC>MOL_PROPERTY
W(PB)
SciTegic.value.DoubleValue
-63.519

@<SCITEGIC>MOL_PROPERTY
W(SA)
SciTegic.value.DoubleValue
2.195

@<SCITEGIC>MOL_PROPERTY
Valence
SciTegic.value.DoubleValue
10.690

@<SCITEGIC>MOL_PROPERTY
Coulomb
SciTegic.value.DoubleValue
-0.062

@<SCITEGIC>MOL_PROPERTY
VdW
SciTegic.value.DoubleValue
0.621

@<SCITEGIC>MOL_PROPERTY
VdW6
SciTegic.value.DoubleValue
-9.203

@<SCITEGIC>MOL_PROPERTY
VdW12
SciTegic.value.DoubleValue
9.824

@<SCITEGIC>MOL_PROPERTY
Bond
SciTegic.value.DoubleValue
0.231

@<SCITEGIC>MOL_PROPERTY
Angle
SciTegic.value.DoubleValue
3.570

@<SCITEGIC>MOL_PROPERTY
Pdih
SciTegic.value.DoubleValue
6.888

@<SCITEGIC>MOL_PROPERTY
Idih
SciTegic.value.DoubleValue
0.001

@<SCITEGIC>MOL_PROPERTY
Tether
SciTegic.value.DoubleValue
0.000

@<TRIPOS>MOLECULE
guest-s21_vm2.mol2 : vm2 ligand conformer 60
          22          21           1
SMALL
USER_CHARGES
 
@<TRIPOS>ATOM
       1    C1      20.230943   19.292082   25.480484 C.2        1 MOL1         0.6145
       2    O1      20.900092   20.301533   25.381754 O.co2      1 MOL1        -0.6735
       3    O2      19.706243   18.931197   26.515507 O.co2      1 MOL1        -0.6735
       4    C2      20.021769   18.441106   24.233199 C.3        1 MOL1        -0.1985
       5    H1      19.930517   17.394101   24.545595 H          1 MOL1         0.0740
       6    H2      20.927103   18.518173   23.621242 H          1 MOL1         0.0740
       7    C3      18.771494   18.866331   23.419945 C.3        1 MOL1        -0.1882
       8    H3      17.894067   18.820879   24.079590 H          1 MOL1         0.0742
       9    H4      18.861414   19.915859   23.112698 H          1 MOL1         0.0742
      10    C4      18.505381   17.971396   22.185615 C.3        1 MOL1        -0.1880
      11    H5      17.562335   18.287139   21.719079 H          1 MOL1         0.0742
      12    H6      18.339200   16.941318   22.529192 H          1 MOL1         0.0742
      13    C5      19.617154   17.957631   21.103345 C.3        1 MOL1        -0.1880
      14    H7      20.556347   17.565435   21.514669 H          1 MOL1         0.0742
      15    H8      19.311461   17.233981   20.335454 H          1 MOL1         0.0742
      16    C6      19.858352   19.317669   20.400855 C.3        1 MOL1        -0.1856
      17    H9      18.932560   19.909062   20.387038 H          1 MOL1         0.0742
      18    H10     20.112881   19.125487   19.349414 H          1 MOL1         0.0742
      19    C7      21.008570   20.140055   21.023297 C.3        1 MOL1        -0.2871
      20    H11     21.947189   19.571104   21.012071 H          1 MOL1         0.0754
      21    H12     20.795608   20.422668   22.060414 H          1 MOL1         0.0754
      22    H13     21.169808   21.064498   20.454033 H          1 MOL1         0.0754
@<TRIPOS>BOND
    1     1     2    1
    2     1     3    2
    3     1     4    1
    4     4     5    1
    5     4     6    1
    6     4     7    1
    7     7     8    1
    8     7     9    1
    9     7    10    1
   10    10    11    1
   11    10    12    1
   12    10    13    1
   13    13    14    1
   14    13    15    1
   15    13    16    1
   16    16    17    1
   17    16    18    1
   18    16    19    1
   19    19    20    1
   20    19    21    1
   21    19    22    1
@<TRIPOS>SUBSTRUCTURE
       1 MOL1            1 RESIDUE      1      MOL     
@<SCITEGIC>MOL_PROPERTY
VM2 Rank
SciTegic.value.IntegerValue
60

@<SCITEGIC>MOL_PROPERTY
Conf_Id
SciTegic.value.IntegerValue
111

@<SCITEGIC>MOL_PROPERTY
Probability
SciTegic.value.DoubleValue
0.00

@<SCITEGIC>MOL_PROPERTY
Sum Probability
SciTegic.value.DoubleValue
99.97

@<SCITEGIC>MOL_PROPERTY
Delta G
SciTegic.value.DoubleValue
5.351

@<SCITEGIC>MOL_PROPERTY
G
SciTegic.value.DoubleValue
-11.648

@<SCITEGIC>MOL_PROPERTY
E
SciTegic.value.DoubleValue
-32.062

@<SCITEGIC>MOL_PROPERTY
-TS
SciTegic.value.DoubleValue
20.414

@<SCITEGIC>MOL_PROPERTY
U+W
SciTegic.value.DoubleValue
-49.947

@<SCITEGIC>MOL_PROPERTY
U
SciTegic.value.DoubleValue
11.583

@<SCITEGIC>MOL_PROPERTY
W
SciTegic.value.DoubleValue
-61.530

@<SCITEGIC>MOL_PROPERTY
W(PB)
SciTegic.value.DoubleValue
-63.714

@<SCITEGIC>MOL_PROPERTY
W(SA)
SciTegic.value.DoubleValue
2.184

@<SCITEGIC>MOL_PROPERTY
Valence
SciTegic.value.DoubleValue
10.661

@<SCITEGIC>MOL_PROPERTY
Coulomb
SciTegic.value.DoubleValue
0.424

@<SCITEGIC>MOL_PROPERTY
VdW
SciTegic.value.DoubleValue
0.498

@<SCITEGIC>MOL_PROPERTY
VdW6
SciTegic.value.DoubleValue
-9.423

@<SCITEGIC>MOL_PROPERTY
VdW12
SciTegic.value.DoubleValue
9.921

@<SCITEGIC>MOL_PROPERTY
Bond
SciTegic.value.DoubleValue
0.226

@<SCITEGIC>MOL_PROPERTY
Angle
SciTegic.value.DoubleValue
3.567

@<SCITEGIC>MOL_PROPERTY
Pdih
SciTegic.value.DoubleValue
6.867

@<SCITEGIC>MOL_PROPERTY
Idih
SciTegic.value.DoubleValue
0.001

@<SCITEGIC>MOL_PROPERTY
Tether
SciTegic.value.DoubleValue
0.000

@<TRIPOS>MOLECULE
guest-s21_vm2.mol2 : vm2 ligand conformer 61
          22          21           1
SMALL
USER_CHARGES
 
@<TRIPOS>ATOM
       1    C1      19.783689   19.327280   25.584418 C.2        1 MOL1         0.6145
       2    O1      19.861239   20.534615   25.699618 O.co2      1 MOL1        -0.6735
       3    O2      18.905785   18.658456   26.093242 O.co2      1 MOL1        -0.6735
       4    C2      20.862178   18.611232   24.776173 C.3        1 MOL1        -0.1985
       5    H1      20.869804   17.552749   25.063126 H          1 MOL1         0.0740
       6    H2      21.830204   19.028459   25.077586 H          1 MOL1         0.0740
       7    C3      20.694335   18.749671   23.240681 C.3        1 MOL1        -0.1882
       8    H3      20.669361   19.816451   22.982401 H          1 MOL1         0.0742
       9    H4      21.573314   18.317493   22.743965 H          1 MOL1         0.0742
      10    C4      19.416774   18.052520   22.719084 C.3        1 MOL1        -0.1880
      11    H5      18.530252   18.554631   23.130420 H          1 MOL1         0.0742
      12    H6      19.390925   17.023168   23.101930 H          1 MOL1         0.0742
      13    C5      19.305598   18.000102   21.174661 C.3        1 MOL1        -0.1880
      14    H7      20.139204   17.420104   20.755660 H          1 MOL1         0.0742
      15    H8      18.396070   17.435179   20.928732 H          1 MOL1         0.0742
      16    C6      19.213941   19.383960   20.484478 C.3        1 MOL1        -0.1856
      17    H9      18.758500   20.118537   21.162970 H          1 MOL1         0.0742
      18    H10     18.536367   19.302352   19.623366 H          1 MOL1         0.0742
      19    C7      20.576461   19.901164   19.971644 C.3        1 MOL1        -0.2871
      20    H11     21.298361   20.027138   20.786379 H          1 MOL1         0.0754
      21    H12     20.456224   20.873926   19.477588 H          1 MOL1         0.0754
      22    H13     21.008293   19.204888   19.241038 H          1 MOL1         0.0754
@<TRIPOS>BOND
    1     1     2    1
    2     1     3    2
    3     1     4    1
    4     4     5    1
    5     4     6    1
    6     4     7    1
    7     7     8    1
    8     7     9    1
    9     7    10    1
   10    10    11    1
   11    10    12    1
   12    10    13    1
   13    13    14    1
   14    13    15    1
   15    13    16    1
   16    16    17    1
   17    16    18    1
   18    16    19    1
   19    19    20    1
   20    19    21    1
   21    19    22    1
@<TRIPOS>SUBSTRUCTURE
       1 MOL1            1 RESIDUE      1      MOL     
@<SCITEGIC>MOL_PROPERTY
VM2 Rank
SciTegic.value.IntegerValue
61

@<SCITEGIC>MOL_PROPERTY
Conf_Id
SciTegic.value.IntegerValue
507

@<SCITEGIC>MOL_PROPERTY
Probability
SciTegic.value.DoubleValue
0.00

@<SCITEGIC>MOL_PROPERTY
Sum Probability
SciTegic.value.DoubleValue
99.98

@<SCITEGIC>MOL_PROPERTY
Delta G
SciTegic.value.DoubleValue
5.363

@<SCITEGIC>MOL_PROPERTY
G
SciTegic.value.DoubleValue
-11.636

@<SCITEGIC>MOL_PROPERTY
E
SciTegic.value.DoubleValue
-31.838

@<SCITEGIC>MOL_PROPERTY
-TS
SciTegic.value.DoubleValue
20.203

@<SCITEGIC>MOL_PROPERTY
U+W
SciTegic.value.DoubleValue
-49.723

@<SCITEGIC>MOL_PROPERTY
U
SciTegic.value.DoubleValue
12.072

@<SCITEGIC>MOL_PROPERTY
W
SciTegic.value.DoubleValue
-61.795

@<SCITEGIC>MOL_PROPERTY
W(PB)
SciTegic.value.DoubleValue
-64.020

@<SCITEGIC>MOL_PROPERTY
W(SA)
SciTegic.value.DoubleValue
2.226

@<SCITEGIC>MOL_PROPERTY
Valence
SciTegic.value.DoubleValue
10.343

@<SCITEGIC>MOL_PROPERTY
Coulomb
SciTegic.value.DoubleValue
1.036

@<SCITEGIC>MOL_PROPERTY
VdW
SciTegic.value.DoubleValue
0.692

@<SCITEGIC>MOL_PROPERTY
VdW6
SciTegic.value.DoubleValue
-8.924

@<SCITEGIC>MOL_PROPERTY
VdW12
SciTegic.value.DoubleValue
9.616

@<SCITEGIC>MOL_PROPERTY
Bond
SciTegic.value.DoubleValue
0.196

@<SCITEGIC>MOL_PROPERTY
Angle
SciTegic.value.DoubleValue
3.145

@<SCITEGIC>MOL_PROPERTY
Pdih
SciTegic.value.DoubleValue
7.002

@<SCITEGIC>MOL_PROPERTY
Idih
SciTegic.value.DoubleValue
0.001

@<SCITEGIC>MOL_PROPERTY
Tether
SciTegic.value.DoubleValue
0.000

@<TRIPOS>MOLECULE
guest-s21_vm2.mol2 : vm2 ligand conformer 62
          22          21           1
SMALL
USER_CHARGES
 
@<TRIPOS>ATOM
       1    C1      19.904697   19.045982   25.712727 C.2        1 MOL1         0.6145
       2    O1      18.904374   19.566081   26.166368 O.co2      1 MOL1        -0.6735
       3    O2      20.337753   17.976263   26.093693 O.co2      1 MOL1        -0.6735
       4    C2      20.673409   19.785740   24.621287 C.3        1 MOL1        -0.1985
       5    H1      21.735688   19.752934   24.890504 H          1 MOL1         0.0740
       6    H2      20.374813   20.840963   24.635387 H          1 MOL1         0.0740
       7    C3      20.481975   19.194101   23.200370 C.3        1 MOL1        -0.1882
       8    H3      21.188570   19.688764   22.522183 H          1 MOL1         0.0742
       9    H4      20.739690   18.126051   23.211791 H          1 MOL1         0.0742
      10    C4      19.043246   19.382798   22.666017 C.3        1 MOL1        -0.1880
      11    H5      18.824942   20.455703   22.577026 H          1 MOL1         0.0742
      12    H6      18.330304   18.985016   23.401084 H          1 MOL1         0.0742
      13    C5      18.772551   18.687497   21.308150 C.3        1 MOL1        -0.1880
      14    H7      18.898036   17.600852   21.410044 H          1 MOL1         0.0742
      15    H8      17.712980   18.843374   21.063448 H          1 MOL1         0.0742
      16    C6      19.622586   19.217580   20.126476 C.3        1 MOL1        -0.1856
      17    H9      19.904536   20.265340   20.299435 H          1 MOL1         0.0742
      18    H10     19.003037   19.214146   19.219037 H          1 MOL1         0.0742
      19    C7      20.879410   18.362958   19.848913 C.3        1 MOL1        -0.2871
      20    H11     21.553318   18.334943   20.712606 H          1 MOL1         0.0754
      21    H12     21.440984   18.771064   18.998675 H          1 MOL1         0.0754
      22    H13     20.601866   17.329773   19.602774 H          1 MOL1         0.0754
@<TRIPOS>BOND
    1     1     2    1
    2     1     3    2
    3     1     4    1
    4     4     5    1
    5     4     6    1
    6     4     7    1
    7     7     8    1
    8     7     9    1
    9     7    10    1
   10    10    11    1
   11    10    12    1
   12    10    13    1
   13    13    14    1
   14    13    15    1
   15    13    16    1
   16    16    17    1
   17    16    18    1
   18    16    19    1
   19    19    20    1
   20    19    21    1
   21    19    22    1
@<TRIPOS>SUBSTRUCTURE
       1 MOL1            1 RESIDUE      1      MOL     
@<SCITEGIC>MOL_PROPERTY
VM2 Rank
SciTegic.value.IntegerValue
62

@<SCITEGIC>MOL_PROPERTY
Conf_Id
SciTegic.value.IntegerValue
250

@<SCITEGIC>MOL_PROPERTY
Probability
SciTegic.value.DoubleValue
0.00

@<SCITEGIC>MOL_PROPERTY
Sum Probability
SciTegic.value.DoubleValue
99.98

@<SCITEGIC>MOL_PROPERTY
Delta G
SciTegic.value.DoubleValue
5.403

@<SCITEGIC>MOL_PROPERTY
G
SciTegic.value.DoubleValue
-11.596

@<SCITEGIC>MOL_PROPERTY
E
SciTegic.value.DoubleValue
-31.833

@<SCITEGIC>MOL_PROPERTY
-TS
SciTegic.value.DoubleValue
20.238

@<SCITEGIC>MOL_PROPERTY
U+W
SciTegic.value.DoubleValue
-49.718

@<SCITEGIC>MOL_PROPERTY
U
SciTegic.value.DoubleValue
11.773

@<SCITEGIC>MOL_PROPERTY
W
SciTegic.value.DoubleValue
-61.491

@<SCITEGIC>MOL_PROPERTY
W(PB)
SciTegic.value.DoubleValue
-63.745

@<SCITEGIC>MOL_PROPERTY
W(SA)
SciTegic.value.DoubleValue
2.254

@<SCITEGIC>MOL_PROPERTY
Valence
SciTegic.value.DoubleValue
10.419

@<SCITEGIC>MOL_PROPERTY
Coulomb
SciTegic.value.DoubleValue
0.565

@<SCITEGIC>MOL_PROPERTY
VdW
SciTegic.value.DoubleValue
0.789

@<SCITEGIC>MOL_PROPERTY
VdW6
SciTegic.value.DoubleValue
-8.847

@<SCITEGIC>MOL_PROPERTY
VdW12
SciTegic.value.DoubleValue
9.636

@<SCITEGIC>MOL_PROPERTY
Bond
SciTegic.value.DoubleValue
0.200

@<SCITEGIC>MOL_PROPERTY
Angle
SciTegic.value.DoubleValue
3.187

@<SCITEGIC>MOL_PROPERTY
Pdih
SciTegic.value.DoubleValue
7.032

@<SCITEGIC>MOL_PROPERTY
Idih
SciTegic.value.DoubleValue
0.001

@<SCITEGIC>MOL_PROPERTY
Tether
SciTegic.value.DoubleValue
0.000

@<TRIPOS>MOLECULE
guest-s21_vm2.mol2 : vm2 ligand conformer 63
          22          21           1
SMALL
USER_CHARGES
 
@<TRIPOS>ATOM
       1    C1      19.715952   19.150633   25.718612 C.2        1 MOL1         0.6145
       2    O1      19.824088   20.336756   25.960085 O.co2      1 MOL1        -0.6735
       3    O2      20.289367   18.282002   26.346039 O.co2      1 MOL1        -0.6735
       4    C2      18.794792   18.725218   24.578605 C.3        1 MOL1        -0.1985
       5    H1      18.110929   19.552543   24.353424 H          1 MOL1         0.0740
       6    H2      18.179194   17.896008   24.946598 H          1 MOL1         0.0740
       7    C3      19.541949   18.284378   23.293055 C.3        1 MOL1        -0.1882
       8    H3      20.242587   17.475138   23.541137 H          1 MOL1         0.0742
       9    H4      18.814397   17.860602   22.591131 H          1 MOL1         0.0742
      10    C4      20.309707   19.450020   22.623221 C.3        1 MOL1        -0.1880
      11    H5      21.067695   19.815532   23.329615 H          1 MOL1         0.0742
      12    H6      19.634113   20.296003   22.437062 H          1 MOL1         0.0742
      13    C5      21.023008   19.039578   21.309974 C.3        1 MOL1        -0.1880
      14    H7      21.975033   19.584909   21.253964 H          1 MOL1         0.0742
      15    H8      21.290643   17.974487   21.338367 H          1 MOL1         0.0742
      16    C6      20.229337   19.354820   20.017946 C.3        1 MOL1        -0.1856
      17    H9      20.857313   19.101884   19.152598 H          1 MOL1         0.0742
      18    H10     20.041764   20.435650   19.955832 H          1 MOL1         0.0742
      19    C7      18.891800   18.595595   19.896462 C.3        1 MOL1        -0.2871
      20    H11     18.441147   18.767503   18.910493 H          1 MOL1         0.0754
      21    H12     18.173309   18.936883   20.652057 H          1 MOL1         0.0754
      22    H13     19.039810   17.514676   20.017601 H          1 MOL1         0.0754
@<TRIPOS>BOND
    1     1     2    1
    2     1     3    2
    3     1     4    1
    4     4     5    1
    5     4     6    1
    6     4     7    1
    7     7     8    1
    8     7     9    1
    9     7    10    1
   10    10    11    1
   11    10    12    1
   12    10    13    1
   13    13    14    1
   14    13    15    1
   15    13    16    1
   16    16    17    1
   17    16    18    1
   18    16    19    1
   19    19    20    1
   20    19    21    1
   21    19    22    1
@<TRIPOS>SUBSTRUCTURE
       1 MOL1            1 RESIDUE      1      MOL     
@<SCITEGIC>MOL_PROPERTY
VM2 Rank
SciTegic.value.IntegerValue
63

@<SCITEGIC>MOL_PROPERTY
Conf_Id
SciTegic.value.IntegerValue
380

@<SCITEGIC>MOL_PROPERTY
Probability
SciTegic.value.DoubleValue
0.00

@<SCITEGIC>MOL_PROPERTY
Sum Probability
SciTegic.value.DoubleValue
99.98

@<SCITEGIC>MOL_PROPERTY
Delta G
SciTegic.value.DoubleValue
5.403

@<SCITEGIC>MOL_PROPERTY
G
SciTegic.value.DoubleValue
-11.595

@<SCITEGIC>MOL_PROPERTY
E
SciTegic.value.DoubleValue
-31.810

@<SCITEGIC>MOL_PROPERTY
-TS
SciTegic.value.DoubleValue
20.215

@<SCITEGIC>MOL_PROPERTY
U+W
SciTegic.value.DoubleValue
-49.695

@<SCITEGIC>MOL_PROPERTY
U
SciTegic.value.DoubleValue
11.659

@<SCITEGIC>MOL_PROPERTY
W
SciTegic.value.DoubleValue
-61.353

@<SCITEGIC>MOL_PROPERTY
W(PB)
SciTegic.value.DoubleValue
-63.612

@<SCITEGIC>MOL_PROPERTY
W(SA)
SciTegic.value.DoubleValue
2.259

@<SCITEGIC>MOL_PROPERTY
Valence
SciTegic.value.DoubleValue
10.364

@<SCITEGIC>MOL_PROPERTY
Coulomb
SciTegic.value.DoubleValue
0.563

@<SCITEGIC>MOL_PROPERTY
VdW
SciTegic.value.DoubleValue
0.732

@<SCITEGIC>MOL_PROPERTY
VdW6
SciTegic.value.DoubleValue
-8.874

@<SCITEGIC>MOL_PROPERTY
VdW12
SciTegic.value.DoubleValue
9.606

@<SCITEGIC>MOL_PROPERTY
Bond
SciTegic.value.DoubleValue
0.201

@<SCITEGIC>MOL_PROPERTY
Angle
SciTegic.value.DoubleValue
3.127

@<SCITEGIC>MOL_PROPERTY
Pdih
SciTegic.value.DoubleValue
7.036

@<SCITEGIC>MOL_PROPERTY
Idih
SciTegic.value.DoubleValue
0.001

@<SCITEGIC>MOL_PROPERTY
Tether
SciTegic.value.DoubleValue
0.000

@<TRIPOS>MOLECULE
guest-s21_vm2.mol2 : vm2 ligand conformer 64
          22          21           1
SMALL
USER_CHARGES
 
@<TRIPOS>ATOM
       1    C1      19.896762   19.192980   25.707094 C.2        1 MOL1         0.6145
       2    O1      20.210640   20.329052   26.003395 O.co2      1 MOL1        -0.6735
       3    O2      18.956368   18.604468   26.203332 O.co2      1 MOL1        -0.6735
       4    C2      20.745063   18.458998   24.672177 C.3        1 MOL1        -0.1985
       5    H1      20.561587   17.381964   24.768036 H          1 MOL1         0.0740
       6    H2      21.796534   18.626278   24.933744 H          1 MOL1         0.0740
       7    C3      20.497012   18.916393   23.211029 C.3        1 MOL1        -0.1882
       8    H3      20.638441   20.003683   23.139787 H          1 MOL1         0.0742
       9    H4      21.255438   18.450168   22.569679 H          1 MOL1         0.0742
      10    C4      19.089082   18.533973   22.698610 C.3        1 MOL1        -0.1880
      11    H5      18.334528   18.907861   23.404087 H          1 MOL1         0.0742
      12    H6      18.987653   17.440183   22.692747 H          1 MOL1         0.0742
      13    C5      18.750838   19.090402   21.292730 C.3        1 MOL1        -0.1880
      14    H7      17.715133   18.803436   21.065066 H          1 MOL1         0.0742
      15    H8      18.758520   20.188830   21.310781 H          1 MOL1         0.0742
      16    C6      19.657678   18.565904   20.151485 C.3        1 MOL1        -0.1856
      17    H9      19.045035   18.433392   19.249039 H          1 MOL1         0.0742
      18    H10     20.049830   17.570795   20.402852 H          1 MOL1         0.0742
      19    C7      20.816557   19.526831   19.804147 C.3        1 MOL1        -0.2871
      20    H11     20.430648   20.502334   19.480799 H          1 MOL1         0.0754
      21    H12     21.422232   19.117543   18.985331 H          1 MOL1         0.0754
      22    H13     21.479975   19.693100   20.660381 H          1 MOL1         0.0754
@<TRIPOS>BOND
    1     1     2    1
    2     1     3    2
    3     1     4    1
    4     4     5    1
    5     4     6    1
    6     4     7    1
    7     7     8    1
    8     7     9    1
    9     7    10    1
   10    10    11    1
   11    10    12    1
   12    10    13    1
   13    13    14    1
   14    13    15    1
   15    13    16    1
   16    16    17    1
   17    16    18    1
   18    16    19    1
   19    19    20    1
   20    19    21    1
   21    19    22    1
@<TRIPOS>SUBSTRUCTURE
       1 MOL1            1 RESIDUE      1      MOL     
@<SCITEGIC>MOL_PROPERTY
VM2 Rank
SciTegic.value.IntegerValue
64

@<SCITEGIC>MOL_PROPERTY
Conf_Id
SciTegic.value.IntegerValue
254

@<SCITEGIC>MOL_PROPERTY
Probability
SciTegic.value.DoubleValue
0.00

@<SCITEGIC>MOL_PROPERTY
Sum Probability
SciTegic.value.DoubleValue
99.99

@<SCITEGIC>MOL_PROPERTY
Delta G
SciTegic.value.DoubleValue
5.428

@<SCITEGIC>MOL_PROPERTY
G
SciTegic.value.DoubleValue
-11.570

@<SCITEGIC>MOL_PROPERTY
E
SciTegic.value.DoubleValue
-31.807

@<SCITEGIC>MOL_PROPERTY
-TS
SciTegic.value.DoubleValue
20.237

@<SCITEGIC>MOL_PROPERTY
U+W
SciTegic.value.DoubleValue
-49.692

@<SCITEGIC>MOL_PROPERTY
U
SciTegic.value.DoubleValue
11.773

@<SCITEGIC>MOL_PROPERTY
W
SciTegic.value.DoubleValue
-61.466

@<SCITEGIC>MOL_PROPERTY
W(PB)
SciTegic.value.DoubleValue
-63.714

@<SCITEGIC>MOL_PROPERTY
W(SA)
SciTegic.value.DoubleValue
2.248

@<SCITEGIC>MOL_PROPERTY
Valence
SciTegic.value.DoubleValue
10.419

@<SCITEGIC>MOL_PROPERTY
Coulomb
SciTegic.value.DoubleValue
0.565

@<SCITEGIC>MOL_PROPERTY
VdW
SciTegic.value.DoubleValue
0.789

@<SCITEGIC>MOL_PROPERTY
VdW6
SciTegic.value.DoubleValue
-8.847

@<SCITEGIC>MOL_PROPERTY
VdW12
SciTegic.value.DoubleValue
9.636

@<SCITEGIC>MOL_PROPERTY
Bond
SciTegic.value.DoubleValue
0.200

@<SCITEGIC>MOL_PROPERTY
Angle
SciTegic.value.DoubleValue
3.187

@<SCITEGIC>MOL_PROPERTY
Pdih
SciTegic.value.DoubleValue
7.033

@<SCITEGIC>MOL_PROPERTY
Idih
SciTegic.value.DoubleValue
0.001

@<SCITEGIC>MOL_PROPERTY
Tether
SciTegic.value.DoubleValue
0.000

@<TRIPOS>MOLECULE
guest-s21_vm2.mol2 : vm2 ligand conformer 65
          22          21           1
SMALL
USER_CHARGES
 
@<TRIPOS>ATOM
       1    C1      19.896858   19.195565   25.718778 C.2        1 MOL1         0.6145
       2    O1      19.246220   20.193420   25.959285 O.co2      1 MOL1        -0.6735
       3    O2      19.794662   18.159334   26.345489 O.co2      1 MOL1        -0.6735
       4    C2      20.913006   19.250885   24.581453 C.3        1 MOL1        -0.1985
       5    H1      21.843917   18.805503   24.951603 H          1 MOL1         0.0740
       6    H2      21.131272   20.302087   24.357458 H          1 MOL1         0.0740
       7    C3      20.462017   18.512625   23.294289 C.3        1 MOL1        -0.1882
       8    H3      21.305075   18.478729   22.594488 H          1 MOL1         0.0742
       9    H4      20.220524   17.469516   23.541091 H          1 MOL1         0.0742
      10    C4      19.239983   19.184332   22.621765 C.3        1 MOL1        -0.1880
      11    H5      19.441949   20.248195   22.436901 H          1 MOL1         0.0742
      12    H6      18.397218   19.152380   23.325943 H          1 MOL1         0.0742
      13    C5      18.804901   18.488888   21.306875 C.3        1 MOL1        -0.1880
      14    H7      19.066414   17.422275   21.335183 H          1 MOL1         0.0742
      15    H8      17.708517   18.525677   21.248024 H          1 MOL1         0.0742
      16    C6      19.362358   19.139661   20.016773 C.3        1 MOL1        -0.1856
      17    H9      19.022780   20.182756   19.954510 H          1 MOL1         0.0742
      18    H10     18.927886   18.622994   19.149913 H          1 MOL1         0.0742
      19    C7      20.899996   19.094291   19.899292 C.3        1 MOL1        -0.2871
      20    H11     21.373438   19.731490   20.656567 H          1 MOL1         0.0754
      21    H12     21.220492   19.457692   18.914409 H          1 MOL1         0.0754
      22    H13     21.274436   18.069588   20.020715 H          1 MOL1         0.0754
@<TRIPOS>BOND
    1     1     2    1
    2     1     3    2
    3     1     4    1
    4     4     5    1
    5     4     6    1
    6     4     7    1
    7     7     8    1
    8     7     9    1
    9     7    10    1
   10    10    11    1
   11    10    12    1
   12    10    13    1
   13    13    14    1
   14    13    15    1
   15    13    16    1
   16    16    17    1
   17    16    18    1
   18    16    19    1
   19    19    20    1
   20    19    21    1
   21    19    22    1
@<TRIPOS>SUBSTRUCTURE
       1 MOL1            1 RESIDUE      1      MOL     
@<SCITEGIC>MOL_PROPERTY
VM2 Rank
SciTegic.value.IntegerValue
65

@<SCITEGIC>MOL_PROPERTY
Conf_Id
SciTegic.value.IntegerValue
57

@<SCITEGIC>MOL_PROPERTY
Probability
SciTegic.value.DoubleValue
0.00

@<SCITEGIC>MOL_PROPERTY
Sum Probability
SciTegic.value.DoubleValue
99.99

@<SCITEGIC>MOL_PROPERTY
Delta G
SciTegic.value.DoubleValue
5.437

@<SCITEGIC>MOL_PROPERTY
G
SciTegic.value.DoubleValue
-11.562

@<SCITEGIC>MOL_PROPERTY
E
SciTegic.value.DoubleValue
-31.777

@<SCITEGIC>MOL_PROPERTY
-TS
SciTegic.value.DoubleValue
20.215

@<SCITEGIC>MOL_PROPERTY
U+W
SciTegic.value.DoubleValue
-49.661

@<SCITEGIC>MOL_PROPERTY
U
SciTegic.value.DoubleValue
11.658

@<SCITEGIC>MOL_PROPERTY
W
SciTegic.value.DoubleValue
-61.320

@<SCITEGIC>MOL_PROPERTY
W(PB)
SciTegic.value.DoubleValue
-63.557

@<SCITEGIC>MOL_PROPERTY
W(SA)
SciTegic.value.DoubleValue
2.236

@<SCITEGIC>MOL_PROPERTY
Valence
SciTegic.value.DoubleValue
10.364

@<SCITEGIC>MOL_PROPERTY
Coulomb
SciTegic.value.DoubleValue
0.562

@<SCITEGIC>MOL_PROPERTY
VdW
SciTegic.value.DoubleValue
0.732

@<SCITEGIC>MOL_PROPERTY
VdW6
SciTegic.value.DoubleValue
-8.874

@<SCITEGIC>MOL_PROPERTY
VdW12
SciTegic.value.DoubleValue
9.606

@<SCITEGIC>MOL_PROPERTY
Bond
SciTegic.value.DoubleValue
0.201

@<SCITEGIC>MOL_PROPERTY
Angle
SciTegic.value.DoubleValue
3.127

@<SCITEGIC>MOL_PROPERTY
Pdih
SciTegic.value.DoubleValue
7.036

@<SCITEGIC>MOL_PROPERTY
Idih
SciTegic.value.DoubleValue
0.001

@<SCITEGIC>MOL_PROPERTY
Tether
SciTegic.value.DoubleValue
0.000

@<TRIPOS>MOLECULE
guest-s21_vm2.mol2 : vm2 ligand conformer 66
          22          21           1
SMALL
USER_CHARGES
 
@<TRIPOS>ATOM
       1    C1      20.127136   18.941884   25.491627 C.2        1 MOL1         0.6145
       2    O1      19.571644   19.413906   26.464173 O.co2      1 MOL1        -0.6735
       3    O2      20.482387   17.782016   25.418270 O.co2      1 MOL1        -0.6735
       4    C2      20.415679   19.864199   24.310137 C.3        1 MOL1        -0.1985
       5    H1      21.176655   19.390934   23.681704 H          1 MOL1         0.0740
       6    H2      20.867091   20.777321   24.715300 H          1 MOL1         0.0740
       7    C3      19.156491   20.238578   23.479774 C.3        1 MOL1        -0.1882
       8    H3      18.405082   20.648064   24.169191 H          1 MOL1         0.0742
       9    H4      19.398837   21.050802   22.781308 H          1 MOL1         0.0742
      10    C4      18.528094   19.050708   22.705266 C.3        1 MOL1        -0.1880
      11    H5      17.437962   19.186168   22.700276 H          1 MOL1         0.0742
      12    H6      18.707259   18.106192   23.236825 H          1 MOL1         0.0742
      13    C5      18.987453   18.923041   21.231126 C.3        1 MOL1        -0.1880
      14    H7      18.420387   18.106020   20.764472 H          1 MOL1         0.0742
      15    H8      18.718184   19.836426   20.683379 H          1 MOL1         0.0742
      16    C6      20.496633   18.646814   21.057734 C.3        1 MOL1        -0.1856
      17    H9      20.791883   17.791571   21.681402 H          1 MOL1         0.0742
      18    H10     21.075521   19.514595   21.399423 H          1 MOL1         0.0742
      19    C7      20.854483   18.357856   19.585892 C.3        1 MOL1        -0.2871
      20    H11     20.320600   17.471920   19.217925 H          1 MOL1         0.0754
      21    H12     21.931226   18.172846   19.479068 H          1 MOL1         0.0754
      22    H13     20.591154   19.208553   18.943772 H          1 MOL1         0.0754
@<TRIPOS>BOND
    1     1     2    1
    2     1     3    2
    3     1     4    1
    4     4     5    1
    5     4     6    1
    6     4     7    1
    7     7     8    1
    8     7     9    1
    9     7    10    1
   10    10    11    1
   11    10    12    1
   12    10    13    1
   13    13    14    1
   14    13    15    1
   15    13    16    1
   16    16    17    1
   17    16    18    1
   18    16    19    1
   19    19    20    1
   20    19    21    1
   21    19    22    1
@<TRIPOS>SUBSTRUCTURE
       1 MOL1            1 RESIDUE      1      MOL     
@<SCITEGIC>MOL_PROPERTY
VM2 Rank
SciTegic.value.IntegerValue
66

@<SCITEGIC>MOL_PROPERTY
Conf_Id
SciTegic.value.IntegerValue
127

@<SCITEGIC>MOL_PROPERTY
Probability
SciTegic.value.DoubleValue
0.00

@<SCITEGIC>MOL_PROPERTY
Sum Probability
SciTegic.value.DoubleValue
99.99

@<SCITEGIC>MOL_PROPERTY
Delta G
SciTegic.value.DoubleValue
5.510

@<SCITEGIC>MOL_PROPERTY
G
SciTegic.value.DoubleValue
-11.489

@<SCITEGIC>MOL_PROPERTY
E
SciTegic.value.DoubleValue
-31.789

@<SCITEGIC>MOL_PROPERTY
-TS
SciTegic.value.DoubleValue
20.300

@<SCITEGIC>MOL_PROPERTY
U+W
SciTegic.value.DoubleValue
-49.673

@<SCITEGIC>MOL_PROPERTY
U
SciTegic.value.DoubleValue
11.908

@<SCITEGIC>MOL_PROPERTY
W
SciTegic.value.DoubleValue
-61.582

@<SCITEGIC>MOL_PROPERTY
W(PB)
SciTegic.value.DoubleValue
-63.808

@<SCITEGIC>MOL_PROPERTY
W(SA)
SciTegic.value.DoubleValue
2.226

@<SCITEGIC>MOL_PROPERTY
Valence
SciTegic.value.DoubleValue
10.449

@<SCITEGIC>MOL_PROPERTY
Coulomb
SciTegic.value.DoubleValue
0.769

@<SCITEGIC>MOL_PROPERTY
VdW
SciTegic.value.DoubleValue
0.691

@<SCITEGIC>MOL_PROPERTY
VdW6
SciTegic.value.DoubleValue
-9.053

@<SCITEGIC>MOL_PROPERTY
VdW12
SciTegic.value.DoubleValue
9.744

@<SCITEGIC>MOL_PROPERTY
Bond
SciTegic.value.DoubleValue
0.222

@<SCITEGIC>MOL_PROPERTY
Angle
SciTegic.value.DoubleValue
3.228

@<SCITEGIC>MOL_PROPERTY
Pdih
SciTegic.value.DoubleValue
6.998

@<SCITEGIC>MOL_PROPERTY
Idih
SciTegic.value.DoubleValue
0.001

@<SCITEGIC>MOL_PROPERTY
Tether
SciTegic.value.DoubleValue
0.000

@<TRIPOS>MOLECULE
guest-s21_vm2.mol2 : vm2 ligand conformer 67
          22          21           1
SMALL
USER_CHARGES
 
@<TRIPOS>ATOM
       1    C1      20.163857   19.173855   25.423507 C.2        1 MOL1         0.6145
       2    O1      20.931604   20.114721   25.471328 O.co2      1 MOL1        -0.6735
       3    O2      20.440214   18.059471   25.821971 O.co2      1 MOL1        -0.6735
       4    C2      18.766546   19.413947   24.858359 C.3        1 MOL1        -0.1985
       5    H1      18.386526   20.339595   25.306394 H          1 MOL1         0.0740
       6    H2      18.107898   18.604178   25.194913 H          1 MOL1         0.0740
       7    C3      18.725278   19.532011   23.312797 C.3        1 MOL1        -0.1882
       8    H3      17.718985   19.848851   23.007585 H          1 MOL1         0.0742
       9    H4      19.410944   20.327216   22.995987 H          1 MOL1         0.0742
      10    C4      19.071851   18.198411   22.606861 C.3        1 MOL1        -0.1880
      11    H5      18.341455   17.442544   22.926198 H          1 MOL1         0.0742
      12    H6      20.053686   17.831208   22.935978 H          1 MOL1         0.0742
      13    C5      19.036078   18.296346   21.060589 C.3        1 MOL1        -0.1880
      14    H7      18.646793   17.347479   20.666954 H          1 MOL1         0.0742
      15    H8      18.320440   19.067144   20.743536 H          1 MOL1         0.0742
      16    C6      20.413841   18.545177   20.398362 C.3        1 MOL1        -0.1856
      17    H9      20.286159   18.521089   19.307381 H          1 MOL1         0.0742
      18    H10     21.095318   17.719752   20.646370 H          1 MOL1         0.0742
      19    C7      21.070732   19.885062   20.790225 C.3        1 MOL1        -0.2871
      20    H11     21.361330   19.888459   21.848550 H          1 MOL1         0.0754
      21    H12     20.387602   20.725753   20.612850 H          1 MOL1         0.0754
      22    H13     21.978861   20.055244   20.197738 H          1 MOL1         0.0754
@<TRIPOS>BOND
    1     1     2    1
    2     1     3    2
    3     1     4    1
    4     4     5    1
    5     4     6    1
    6     4     7    1
    7     7     8    1
    8     7     9    1
    9     7    10    1
   10    10    11    1
   11    10    12    1
   12    10    13    1
   13    13    14    1
   14    13    15    1
   15    13    16    1
   16    16    17    1
   17    16    18    1
   18    16    19    1
   19    19    20    1
   20    19    21    1
   21    19    22    1
@<TRIPOS>SUBSTRUCTURE
       1 MOL1            1 RESIDUE      1      MOL     
@<SCITEGIC>MOL_PROPERTY
VM2 Rank
SciTegic.value.IntegerValue
67

@<SCITEGIC>MOL_PROPERTY
Conf_Id
SciTegic.value.IntegerValue
162

@<SCITEGIC>MOL_PROPERTY
Probability
SciTegic.value.DoubleValue
0.00

@<SCITEGIC>MOL_PROPERTY
Sum Probability
SciTegic.value.DoubleValue
100.00

@<SCITEGIC>MOL_PROPERTY
Delta G
SciTegic.value.DoubleValue
5.657

@<SCITEGIC>MOL_PROPERTY
G
SciTegic.value.DoubleValue
-11.341

@<SCITEGIC>MOL_PROPERTY
E
SciTegic.value.DoubleValue
-31.598

@<SCITEGIC>MOL_PROPERTY
-TS
SciTegic.value.DoubleValue
20.257

@<SCITEGIC>MOL_PROPERTY
U+W
SciTegic.value.DoubleValue
-49.483

@<SCITEGIC>MOL_PROPERTY
U
SciTegic.value.DoubleValue
12.672

@<SCITEGIC>MOL_PROPERTY
W
SciTegic.value.DoubleValue
-62.155

@<SCITEGIC>MOL_PROPERTY
W(PB)
SciTegic.value.DoubleValue
-64.363

@<SCITEGIC>MOL_PROPERTY
W(SA)
SciTegic.value.DoubleValue
2.207

@<SCITEGIC>MOL_PROPERTY
Valence
SciTegic.value.DoubleValue
10.318

@<SCITEGIC>MOL_PROPERTY
Coulomb
SciTegic.value.DoubleValue
1.786

@<SCITEGIC>MOL_PROPERTY
VdW
SciTegic.value.DoubleValue
0.569

@<SCITEGIC>MOL_PROPERTY
VdW6
SciTegic.value.DoubleValue
-9.119

@<SCITEGIC>MOL_PROPERTY
VdW12
SciTegic.value.DoubleValue
9.688

@<SCITEGIC>MOL_PROPERTY
Bond
SciTegic.value.DoubleValue
0.199

@<SCITEGIC>MOL_PROPERTY
Angle
SciTegic.value.DoubleValue
3.116

@<SCITEGIC>MOL_PROPERTY
Pdih
SciTegic.value.DoubleValue
7.003

@<SCITEGIC>MOL_PROPERTY
Idih
SciTegic.value.DoubleValue
0.001

@<SCITEGIC>MOL_PROPERTY
Tether
SciTegic.value.DoubleValue
0.000

@<TRIPOS>MOLECULE
guest-s21_vm2.mol2 : vm2 ligand conformer 68
          22          21           1
SMALL
USER_CHARGES
 
@<TRIPOS>ATOM
       1    C1      20.330331   19.131422   24.960157 C.2        1 MOL1         0.6145
       2    O1      20.879644   20.214880   25.002328 O.co2      1 MOL1        -0.6735
       3    O2      20.924561   18.074190   25.042781 O.co2      1 MOL1        -0.6735
       4    C2      18.803817   19.098916   24.915944 C.3        1 MOL1        -0.1985
       5    H1      18.422632   20.125355   24.977848 H          1 MOL1         0.0740
       6    H2      18.480530   18.589128   25.830940 H          1 MOL1         0.0740
       7    C3      18.191247   18.368033   23.688156 C.3        1 MOL1        -0.1882
       8    H3      18.736815   17.435152   23.493693 H          1 MOL1         0.0742
       9    H4      17.170330   18.062689   23.954187 H          1 MOL1         0.0742
      10    C4      18.098497   19.228667   22.401121 C.3        1 MOL1        -0.1880
      11    H5      17.503698   20.126702   22.616518 H          1 MOL1         0.0742
      12    H6      17.531377   18.667325   21.646103 H          1 MOL1         0.0742
      13    C5      19.448015   19.663410   21.778758 C.3        1 MOL1        -0.1880
      14    H7      19.236084   20.291810   20.903133 H          1 MOL1         0.0742
      15    H8      19.999489   20.301363   22.480795 H          1 MOL1         0.0742
      16    C6      20.334872   18.477379   21.337617 C.3        1 MOL1        -0.1856
      17    H9      19.765829   17.816177   20.669918 H          1 MOL1         0.0742
      18    H10     20.625592   17.879131   22.211469 H          1 MOL1         0.0742
      19    C7      21.609016   18.962104   20.617138 C.3        1 MOL1        -0.2871
      20    H11     21.357708   19.537082   19.716352 H          1 MOL1         0.0754
      21    H12     22.229749   18.109215   20.313567 H          1 MOL1         0.0754
      22    H13     22.210543   19.601514   21.276704 H          1 MOL1         0.0754
@<TRIPOS>BOND
    1     1     2    1
    2     1     3    2
    3     1     4    1
    4     4     5    1
    5     4     6    1
    6     4     7    1
    7     7     8    1
    8     7     9    1
    9     7    10    1
   10    10    11    1
   11    10    12    1
   12    10    13    1
   13    13    14    1
   14    13    15    1
   15    13    16    1
   16    16    17    1
   17    16    18    1
   18    16    19    1
   19    19    20    1
   20    19    21    1
   21    19    22    1
@<TRIPOS>SUBSTRUCTURE
       1 MOL1            1 RESIDUE      1      MOL     
@<SCITEGIC>MOL_PROPERTY
VM2 Rank
SciTegic.value.IntegerValue
68

@<SCITEGIC>MOL_PROPERTY
Conf_Id
SciTegic.value.IntegerValue
565

@<SCITEGIC>MOL_PROPERTY
Probability
SciTegic.value.DoubleValue
0.00

@<SCITEGIC>MOL_PROPERTY
Sum Probability
SciTegic.value.DoubleValue
100.00

@<SCITEGIC>MOL_PROPERTY
Delta G
SciTegic.value.DoubleValue
6.107

@<SCITEGIC>MOL_PROPERTY
G
SciTegic.value.DoubleValue
-10.892

@<SCITEGIC>MOL_PROPERTY
E
SciTegic.value.DoubleValue
-31.761

@<SCITEGIC>MOL_PROPERTY
-TS
SciTegic.value.DoubleValue
20.869

@<SCITEGIC>MOL_PROPERTY
U+W
SciTegic.value.DoubleValue
-49.646

@<SCITEGIC>MOL_PROPERTY
U
SciTegic.value.DoubleValue
12.940

@<SCITEGIC>MOL_PROPERTY
W
SciTegic.value.DoubleValue
-62.586

@<SCITEGIC>MOL_PROPERTY
W(PB)
SciTegic.value.DoubleValue
-64.782

@<SCITEGIC>MOL_PROPERTY
W(SA)
SciTegic.value.DoubleValue
2.196

@<SCITEGIC>MOL_PROPERTY
Valence
SciTegic.value.DoubleValue
9.684

@<SCITEGIC>MOL_PROPERTY
Coulomb
SciTegic.value.DoubleValue
3.147

@<SCITEGIC>MOL_PROPERTY
VdW
SciTegic.value.DoubleValue
0.109

@<SCITEGIC>MOL_PROPERTY
VdW6
SciTegic.value.DoubleValue
-10.251

@<SCITEGIC>MOL_PROPERTY
VdW12
SciTegic.value.DoubleValue
10.360

@<SCITEGIC>MOL_PROPERTY
Bond
SciTegic.value.DoubleValue
0.223

@<SCITEGIC>MOL_PROPERTY
Angle
SciTegic.value.DoubleValue
3.698

@<SCITEGIC>MOL_PROPERTY
Pdih
SciTegic.value.DoubleValue
5.745

@<SCITEGIC>MOL_PROPERTY
Idih
SciTegic.value.DoubleValue
0.018

@<SCITEGIC>MOL_PROPERTY
Tether
SciTegic.value.DoubleValue
0.000

@<TRIPOS>MOLECULE
guest-s21_vm2.mol2 : vm2 ligand conformer 69
          22          21           1
SMALL
USER_CHARGES
 
@<TRIPOS>ATOM
       1    C1      20.103808   19.435111   25.179582 C.2        1 MOL1         0.6145
       2    O1      20.949784   20.230471   24.821771 O.co2      1 MOL1        -0.6735
       3    O2      20.233439   18.709470   26.146244 O.co2      1 MOL1        -0.6735
       4    C2      18.786985   19.379503   24.407743 C.3        1 MOL1        -0.1985
       5    H1      18.785913   20.161238   23.640609 H          1 MOL1         0.0740
       6    H2      17.991548   19.641130   25.114963 H          1 MOL1         0.0740
       7    C3      18.472409   17.995938   23.778043 C.3        1 MOL1        -0.1882
       8    H3      18.437940   17.247899   24.582208 H          1 MOL1         0.0742
       9    H4      17.464095   18.019492   23.343271 H          1 MOL1         0.0742
      10    C4      19.479892   17.517948   22.701295 C.3        1 MOL1        -0.1880
      11    H5      19.219066   16.481720   22.446242 H          1 MOL1         0.0742
      12    H6      20.494995   17.473513   23.119438 H          1 MOL1         0.0742
      13    C5      19.465922   18.347523   21.391895 C.3        1 MOL1        -0.1880
      14    H7      19.599975   17.660291   20.545307 H          1 MOL1         0.0742
      15    H8      18.482884   18.816946   21.250712 H          1 MOL1         0.0742
      16    C6      20.582962   19.413511   21.324721 C.3        1 MOL1        -0.1856
      17    H9      21.562607   18.928531   21.434863 H          1 MOL1         0.0742
      18    H10     20.489705   20.121826   22.156398 H          1 MOL1         0.0742
      19    C7      20.544799   20.189526   19.992707 C.3        1 MOL1        -0.2871
      20    H11     21.345999   20.939174   19.959337 H          1 MOL1         0.0754
      21    H12     19.586820   20.711654   19.870488 H          1 MOL1         0.0754
      22    H13     20.678167   19.512350   19.138941 H          1 MOL1         0.0754
@<TRIPOS>BOND
    1     1     2    1
    2     1     3    2
    3     1     4    1
    4     4     5    1
    5     4     6    1
    6     4     7    1
    7     7     8    1
    8     7     9    1
    9     7    10    1
   10    10    11    1
   11    10    12    1
   12    10    13    1
   13    13    14    1
   14    13    15    1
   15    13    16    1
   16    16    17    1
   17    16    18    1
   18    16    19    1
   19    19    20    1
   20    19    21    1
   21    19    22    1
@<TRIPOS>SUBSTRUCTURE
       1 MOL1            1 RESIDUE      1      MOL     
@<SCITEGIC>MOL_PROPERTY
VM2 Rank
SciTegic.value.IntegerValue
69

@<SCITEGIC>MOL_PROPERTY
Conf_Id
SciTegic.value.IntegerValue
153

@<SCITEGIC>MOL_PROPERTY
Probability
SciTegic.value.DoubleValue
0.00

@<SCITEGIC>MOL_PROPERTY
Sum Probability
SciTegic.value.DoubleValue
100.00

@<SCITEGIC>MOL_PROPERTY
Delta G
SciTegic.value.DoubleValue
6.216

@<SCITEGIC>MOL_PROPERTY
G
SciTegic.value.DoubleValue
-10.783

@<SCITEGIC>MOL_PROPERTY
E
SciTegic.value.DoubleValue
-31.080

@<SCITEGIC>MOL_PROPERTY
-TS
SciTegic.value.DoubleValue
20.297

@<SCITEGIC>MOL_PROPERTY
U+W
SciTegic.value.DoubleValue
-48.965

@<SCITEGIC>MOL_PROPERTY
U
SciTegic.value.DoubleValue
13.118

@<SCITEGIC>MOL_PROPERTY
W
SciTegic.value.DoubleValue
-62.083

@<SCITEGIC>MOL_PROPERTY
W(PB)
SciTegic.value.DoubleValue
-64.298

@<SCITEGIC>MOL_PROPERTY
W(SA)
SciTegic.value.DoubleValue
2.215

@<SCITEGIC>MOL_PROPERTY
Valence
SciTegic.value.DoubleValue
10.731

@<SCITEGIC>MOL_PROPERTY
Coulomb
SciTegic.value.DoubleValue
2.057

@<SCITEGIC>MOL_PROPERTY
VdW
SciTegic.value.DoubleValue
0.330

@<SCITEGIC>MOL_PROPERTY
VdW6
SciTegic.value.DoubleValue
-9.569

@<SCITEGIC>MOL_PROPERTY
VdW12
SciTegic.value.DoubleValue
9.899

@<SCITEGIC>MOL_PROPERTY
Bond
SciTegic.value.DoubleValue
0.211

@<SCITEGIC>MOL_PROPERTY
Angle
SciTegic.value.DoubleValue
3.393

@<SCITEGIC>MOL_PROPERTY
Pdih
SciTegic.value.DoubleValue
7.123

@<SCITEGIC>MOL_PROPERTY
Idih
SciTegic.value.DoubleValue
0.004

@<SCITEGIC>MOL_PROPERTY
Tether
SciTegic.value.DoubleValue
0.000

@<TRIPOS>MOLECULE
guest-s21_vm2.mol2 : vm2 ligand conformer 70
          22          21           1
SMALL
USER_CHARGES
 
@<TRIPOS>ATOM
       1    C1      20.199484   19.096440   25.107458 C.2        1 MOL1         0.6145
       2    O1      20.558885   20.224735   25.381725 O.co2      1 MOL1        -0.6735
       3    O2      20.931768   18.127734   25.162054 O.co2      1 MOL1        -0.6735
       4    C2      18.724350   18.867886   24.784504 C.3        1 MOL1        -0.1985
       5    H1      18.177492   19.807206   24.930381 H          1 MOL1         0.0740
       6    H2      18.348832   18.166760   25.538847 H          1 MOL1         0.0740
       7    C3      18.436339   18.289190   23.370599 C.3        1 MOL1        -0.1882
       8    H3      19.140498   17.477679   23.143851 H          1 MOL1         0.0742
       9    H4      17.443319   17.820771   23.395768 H          1 MOL1         0.0742
      10    C4      18.426147   19.340430   22.230311 C.3        1 MOL1        -0.1880
      11    H5      17.696173   20.123369   22.476406 H          1 MOL1         0.0742
      12    H6      18.047979   18.863666   21.316559 H          1 MOL1         0.0742
      13    C5      19.788200   20.012903   21.919007 C.3        1 MOL1        -0.1880
      14    H7      19.642860   20.731140   21.100891 H          1 MOL1         0.0742
      15    H8      20.105787   20.611227   22.782169 H          1 MOL1         0.0742
      16    C6      20.930262   19.042655   21.528399 C.3        1 MOL1        -0.1856
      17    H9      21.156639   18.367754   22.364476 H          1 MOL1         0.0742
      18    H10     21.843417   19.628956   21.357821 H          1 MOL1         0.0742
      19    C7      20.624565   18.217027   20.259943 C.3        1 MOL1        -0.2871
      20    H11     19.784385   17.530824   20.424680 H          1 MOL1         0.0754
      21    H12     21.496125   17.613682   19.975234 H          1 MOL1         0.0754
      22    H13     20.375103   18.872152   19.415262 H          1 MOL1         0.0754
@<TRIPOS>BOND
    1     1     2    1
    2     1     3    2
    3     1     4    1
    4     4     5    1
    5     4     6    1
    6     4     7    1
    7     7     8    1
    8     7     9    1
    9     7    10    1
   10    10    11    1
   11    10    12    1
   12    10    13    1
   13    13    14    1
   14    13    15    1
   15    13    16    1
   16    16    17    1
   17    16    18    1
   18    16    19    1
   19    19    20    1
   20    19    21    1
   21    19    22    1
@<TRIPOS>SUBSTRUCTURE
       1 MOL1            1 RESIDUE      1      MOL     
@<SCITEGIC>MOL_PROPERTY
VM2 Rank
SciTegic.value.IntegerValue
70

@<SCITEGIC>MOL_PROPERTY
Conf_Id
SciTegic.value.IntegerValue
370

@<SCITEGIC>MOL_PROPERTY
Probability
SciTegic.value.DoubleValue
0.00

@<SCITEGIC>MOL_PROPERTY
Sum Probability
SciTegic.value.DoubleValue
100.00

@<SCITEGIC>MOL_PROPERTY
Delta G
SciTegic.value.DoubleValue
6.474

@<SCITEGIC>MOL_PROPERTY
G
SciTegic.value.DoubleValue
-10.524

@<SCITEGIC>MOL_PROPERTY
E
SciTegic.value.DoubleValue
-31.657

@<SCITEGIC>MOL_PROPERTY
-TS
SciTegic.value.DoubleValue
21.132

@<SCITEGIC>MOL_PROPERTY
U+W
SciTegic.value.DoubleValue
-49.542

@<SCITEGIC>MOL_PROPERTY
U
SciTegic.value.DoubleValue
12.978

@<SCITEGIC>MOL_PROPERTY
W
SciTegic.value.DoubleValue
-62.519

@<SCITEGIC>MOL_PROPERTY
W(PB)
SciTegic.value.DoubleValue
-64.679

@<SCITEGIC>MOL_PROPERTY
W(SA)
SciTegic.value.DoubleValue
2.160

@<SCITEGIC>MOL_PROPERTY
Valence
SciTegic.value.DoubleValue
10.104

@<SCITEGIC>MOL_PROPERTY
Coulomb
SciTegic.value.DoubleValue
2.676

@<SCITEGIC>MOL_PROPERTY
VdW
SciTegic.value.DoubleValue
0.198

@<SCITEGIC>MOL_PROPERTY
VdW6
SciTegic.value.DoubleValue
-10.984

@<SCITEGIC>MOL_PROPERTY
VdW12
SciTegic.value.DoubleValue
11.182

@<SCITEGIC>MOL_PROPERTY
Bond
SciTegic.value.DoubleValue
0.262

@<SCITEGIC>MOL_PROPERTY
Angle
SciTegic.value.DoubleValue
4.020

@<SCITEGIC>MOL_PROPERTY
Pdih
SciTegic.value.DoubleValue
5.805

@<SCITEGIC>MOL_PROPERTY
Idih
SciTegic.value.DoubleValue
0.017

@<SCITEGIC>MOL_PROPERTY
Tether
SciTegic.value.DoubleValue
0.000

@<TRIPOS>MOLECULE
guest-s21_vm2.mol2 : vm2 ligand conformer 71
          22          21           1
SMALL
USER_CHARGES
 
@<TRIPOS>ATOM
       1    C1      19.953564   19.034966   25.592064 C.2        1 MOL1         0.6145
       2    O1      19.534928   19.913331   26.320400 O.co2      1 MOL1        -0.6735
       3    O2      19.757129   17.851448   25.785931 O.co2      1 MOL1        -0.6735
       4    C2      20.792381   19.441764   24.383681 C.3        1 MOL1        -0.1985
       5    H1      21.337251   18.561848   24.024868 H          1 MOL1         0.0740
       6    H2      21.548907   20.151218   24.738765 H          1 MOL1         0.0740
       7    C3      19.976117   20.096616   23.234833 C.3        1 MOL1        -0.1882
       8    H3      19.462130   20.981202   23.635384 H          1 MOL1         0.0742
       9    H4      20.668915   20.468070   22.470842 H          1 MOL1         0.0742
      10    C4      18.921665   19.160709   22.587732 C.3        1 MOL1        -0.1880
      11    H5      18.242311   19.754826   21.961657 H          1 MOL1         0.0742
      12    H6      18.293139   18.739042   23.383904 H          1 MOL1         0.0742
      13    C5      19.509768   17.996867   21.746111 C.3        1 MOL1        -0.1880
      14    H7      20.490385   17.690804   22.130231 H          1 MOL1         0.0742
      15    H8      18.856854   17.122850   21.874507 H          1 MOL1         0.0742
      16    C6      19.607901   18.285011   20.227639 C.3        1 MOL1        -0.1856
      17    H9      18.607822   18.502311   19.827877 H          1 MOL1         0.0742
      18    H10     19.949321   17.371760   19.721141 H          1 MOL1         0.0742
      19    C7      20.566547   19.438288   19.865610 C.3        1 MOL1        -0.2871
      20    H11     21.557978   19.280459   20.309655 H          1 MOL1         0.0754
      21    H12     20.176213   20.401716   20.216133 H          1 MOL1         0.0754
      22    H13     20.689610   19.507819   18.777137 H          1 MOL1         0.0754
@<TRIPOS>BOND
    1     1     2    1
    2     1     3    2
    3     1     4    1
    4     4     5    1
    5     4     6    1
    6     4     7    1
    7     7     8    1
    8     7     9    1
    9     7    10    1
   10    10    11    1
   11    10    12    1
   12    10    13    1
   13    13    14    1
   14    13    15    1
   15    13    16    1
   16    16    17    1
   17    16    18    1
   18    16    19    1
   19    19    20    1
   20    19    21    1
   21    19    22    1
@<TRIPOS>SUBSTRUCTURE
       1 MOL1            1 RESIDUE      1      MOL     
@<SCITEGIC>MOL_PROPERTY
VM2 Rank
SciTegic.value.IntegerValue
71

@<SCITEGIC>MOL_PROPERTY
Conf_Id
SciTegic.value.IntegerValue
304

@<SCITEGIC>MOL_PROPERTY
Probability
SciTegic.value.DoubleValue
0.00

@<SCITEGIC>MOL_PROPERTY
Sum Probability
SciTegic.value.DoubleValue
100.00

@<SCITEGIC>MOL_PROPERTY
Delta G
SciTegic.value.DoubleValue
6.563

@<SCITEGIC>MOL_PROPERTY
G
SciTegic.value.DoubleValue
-10.435

@<SCITEGIC>MOL_PROPERTY
E
SciTegic.value.DoubleValue
-30.643

@<SCITEGIC>MOL_PROPERTY
-TS
SciTegic.value.DoubleValue
20.208

@<SCITEGIC>MOL_PROPERTY
U+W
SciTegic.value.DoubleValue
-48.528

@<SCITEGIC>MOL_PROPERTY
U
SciTegic.value.DoubleValue
12.987

@<SCITEGIC>MOL_PROPERTY
W
SciTegic.value.DoubleValue
-61.515

@<SCITEGIC>MOL_PROPERTY
W(PB)
SciTegic.value.DoubleValue
-63.718

@<SCITEGIC>MOL_PROPERTY
W(SA)
SciTegic.value.DoubleValue
2.203

@<SCITEGIC>MOL_PROPERTY
Valence
SciTegic.value.DoubleValue
11.113

@<SCITEGIC>MOL_PROPERTY
Coulomb
SciTegic.value.DoubleValue
1.103

@<SCITEGIC>MOL_PROPERTY
VdW
SciTegic.value.DoubleValue
0.770

@<SCITEGIC>MOL_PROPERTY
VdW6
SciTegic.value.DoubleValue
-9.558

@<SCITEGIC>MOL_PROPERTY
VdW12
SciTegic.value.DoubleValue
10.328

@<SCITEGIC>MOL_PROPERTY
Bond
SciTegic.value.DoubleValue
0.268

@<SCITEGIC>MOL_PROPERTY
Angle
SciTegic.value.DoubleValue
3.531

@<SCITEGIC>MOL_PROPERTY
Pdih
SciTegic.value.DoubleValue
7.314

@<SCITEGIC>MOL_PROPERTY
Idih
SciTegic.value.DoubleValue
0.001

@<SCITEGIC>MOL_PROPERTY
Tether
SciTegic.value.DoubleValue
0.000

@<TRIPOS>MOLECULE
guest-s21_vm2.mol2 : vm2 ligand conformer 72
          22          21           1
SMALL
USER_CHARGES
 
@<TRIPOS>ATOM
       1    C1      19.744400   19.384040   25.355467 C.2        1 MOL1         0.6145
       2    O1      20.516999   20.321652   25.324521 O.co2      1 MOL1        -0.6735
       3    O2      19.616545   18.650839   26.316464 O.co2      1 MOL1        -0.6735
       4    C2      18.865387   19.128373   24.134463 C.3        1 MOL1        -0.1985
       5    H1      18.883882   20.020589   23.498927 H          1 MOL1         0.0740
       6    H2      17.834418   19.021201   24.490952 H          1 MOL1         0.0740
       7    C3      19.262463   17.865488   23.321608 C.3        1 MOL1        -0.1882
       8    H3      19.197435   16.990511   23.982869 H          1 MOL1         0.0742
       9    H4      18.528908   17.691212   22.525080 H          1 MOL1         0.0742
      10    C4      20.686392   17.920033   22.714685 C.3        1 MOL1        -0.1880
      11    H5      20.891905   16.965004   22.212525 H          1 MOL1         0.0742
      12    H6      21.415513   17.988377   23.533653 H          1 MOL1         0.0742
      13    C5      20.958150   19.077611   21.718161 C.3        1 MOL1        -0.1880
      14    H7      20.831971   20.051093   22.210336 H          1 MOL1         0.0742
      15    H8      22.021282   19.025830   21.446708 H          1 MOL1         0.0742
      16    C6      20.133954   19.017531   20.407173 C.3        1 MOL1        -0.1856
      17    H9      19.905892   17.974569   20.147919 H          1 MOL1         0.0742
      18    H10     20.755749   19.405919   19.588784 H          1 MOL1         0.0742
      19    C7      18.835710   19.853433   20.451459 C.3        1 MOL1        -0.2871
      20    H11     18.132332   19.476310   21.201524 H          1 MOL1         0.0754
      21    H12     18.329262   19.825356   19.478089 H          1 MOL1         0.0754
      22    H13     19.054071   20.903294   20.686106 H          1 MOL1         0.0754
@<TRIPOS>BOND
    1     1     2    1
    2     1     3    2
    3     1     4    1
    4     4     5    1
    5     4     6    1
    6     4     7    1
    7     7     8    1
    8     7     9    1
    9     7    10    1
   10    10    11    1
   11    10    12    1
   12    10    13    1
   13    13    14    1
   14    13    15    1
   15    13    16    1
   16    16    17    1
   17    16    18    1
   18    16    19    1
   19    19    20    1
   20    19    21    1
   21    19    22    1
@<TRIPOS>SUBSTRUCTURE
       1 MOL1            1 RESIDUE      1      MOL     
@<SCITEGIC>MOL_PROPERTY
VM2 Rank
SciTegic.value.IntegerValue
72

@<SCITEGIC>MOL_PROPERTY
Conf_Id
SciTegic.value.IntegerValue
123

@<SCITEGIC>MOL_PROPERTY
Probability
SciTegic.value.DoubleValue
0.00

@<SCITEGIC>MOL_PROPERTY
Sum Probability
SciTegic.value.DoubleValue
100.00

@<SCITEGIC>MOL_PROPERTY
Delta G
SciTegic.value.DoubleValue
6.718

@<SCITEGIC>MOL_PROPERTY
G
SciTegic.value.DoubleValue
-10.281

@<SCITEGIC>MOL_PROPERTY
E
SciTegic.value.DoubleValue
-30.973

@<SCITEGIC>MOL_PROPERTY
-TS
SciTegic.value.DoubleValue
20.692

@<SCITEGIC>MOL_PROPERTY
U+W
SciTegic.value.DoubleValue
-48.858

@<SCITEGIC>MOL_PROPERTY
U
SciTegic.value.DoubleValue
13.164

@<SCITEGIC>MOL_PROPERTY
W
SciTegic.value.DoubleValue
-62.021

@<SCITEGIC>MOL_PROPERTY
W(PB)
SciTegic.value.DoubleValue
-64.195

@<SCITEGIC>MOL_PROPERTY
W(SA)
SciTegic.value.DoubleValue
2.173

@<SCITEGIC>MOL_PROPERTY
Valence
SciTegic.value.DoubleValue
10.932

@<SCITEGIC>MOL_PROPERTY
Coulomb
SciTegic.value.DoubleValue
1.923

@<SCITEGIC>MOL_PROPERTY
VdW
SciTegic.value.DoubleValue
0.309

@<SCITEGIC>MOL_PROPERTY
VdW6
SciTegic.value.DoubleValue
-10.319

@<SCITEGIC>MOL_PROPERTY
VdW12
SciTegic.value.DoubleValue
10.629

@<SCITEGIC>MOL_PROPERTY
Bond
SciTegic.value.DoubleValue
0.254

@<SCITEGIC>MOL_PROPERTY
Angle
SciTegic.value.DoubleValue
3.841

@<SCITEGIC>MOL_PROPERTY
Pdih
SciTegic.value.DoubleValue
6.835

@<SCITEGIC>MOL_PROPERTY
Idih
SciTegic.value.DoubleValue
0.001

@<SCITEGIC>MOL_PROPERTY
Tether
SciTegic.value.DoubleValue
0.000

@<TRIPOS>MOLECULE
guest-s21_vm2.mol2 : vm2 ligand conformer 73
          22          21           1
SMALL
USER_CHARGES
 
@<TRIPOS>ATOM
       1    C1      19.775176   18.813409   25.377338 C.2        1 MOL1         0.6145
       2    O1      19.565350   19.599896   26.280033 O.co2      1 MOL1        -0.6735
       3    O2      20.644110   17.964572   25.414943 O.co2      1 MOL1        -0.6735
       4    C2      18.878820   18.879169   24.144009 C.3        1 MOL1        -0.1985
       5    H1      17.840845   18.901901   24.495519 H          1 MOL1         0.0740
       6    H2      18.995654   17.948179   23.578409 H          1 MOL1         0.0740
       7    C3      19.141299   20.111602   23.235439 C.3        1 MOL1        -0.1882
       8    H3      18.396559   20.144731   22.430955 H          1 MOL1         0.0742
       9    H4      18.979937   21.022466   23.828200 H          1 MOL1         0.0742
      10    C4      20.565339   20.164128   22.628596 C.3        1 MOL1        -0.1880
      11    H5      21.294197   20.237278   23.447383 H          1 MOL1         0.0742
      12    H6      20.669139   21.094535   22.054098 H          1 MOL1         0.0742
      13    C5      20.963995   18.969714   21.722314 C.3        1 MOL1        -0.1880
      14    H7      22.016523   19.114521   21.443327 H          1 MOL1         0.0742
      15    H8      20.941103   18.028775   22.287941 H          1 MOL1         0.0742
      16    C6      20.143541   18.840557   20.413968 C.3        1 MOL1        -0.1856
      17    H9      20.806821   18.459737   19.625126 H          1 MOL1         0.0742
      18    H10     19.805910   19.830116   20.076668 H          1 MOL1         0.0742
      19    C7      18.942369   17.875953   20.527360 C.3        1 MOL1        -0.2871
      20    H11     18.439886   17.774971   19.556772 H          1 MOL1         0.0754
      21    H12     18.199452   18.231625   21.249253 H          1 MOL1         0.0754
      22    H13     19.271203   16.876642   20.840718 H          1 MOL1         0.0754
@<TRIPOS>BOND
    1     1     2    1
    2     1     3    2
    3     1     4    1
    4     4     5    1
    5     4     6    1
    6     4     7    1
    7     7     8    1
    8     7     9    1
    9     7    10    1
   10    10    11    1
   11    10    12    1
   12    10    13    1
   13    13    14    1
   14    13    15    1
   15    13    16    1
   16    16    17    1
   17    16    18    1
   18    16    19    1
   19    19    20    1
   20    19    21    1
   21    19    22    1
@<TRIPOS>SUBSTRUCTURE
       1 MOL1            1 RESIDUE      1      MOL     
@<SCITEGIC>MOL_PROPERTY
VM2 Rank
SciTegic.value.IntegerValue
73

@<SCITEGIC>MOL_PROPERTY
Conf_Id
SciTegic.value.IntegerValue
506

@<SCITEGIC>MOL_PROPERTY
Probability
SciTegic.value.DoubleValue
0.00

@<SCITEGIC>MOL_PROPERTY
Sum Probability
SciTegic.value.DoubleValue
100.00

@<SCITEGIC>MOL_PROPERTY
Delta G
SciTegic.value.DoubleValue
6.732

@<SCITEGIC>MOL_PROPERTY
G
SciTegic.value.DoubleValue
-10.266

@<SCITEGIC>MOL_PROPERTY
E
SciTegic.value.DoubleValue
-30.958

@<SCITEGIC>MOL_PROPERTY
-TS
SciTegic.value.DoubleValue
20.692

@<SCITEGIC>MOL_PROPERTY
U+W
SciTegic.value.DoubleValue
-48.843

@<SCITEGIC>MOL_PROPERTY
U
SciTegic.value.DoubleValue
13.164

@<SCITEGIC>MOL_PROPERTY
W
SciTegic.value.DoubleValue
-62.007

@<SCITEGIC>MOL_PROPERTY
W(PB)
SciTegic.value.DoubleValue
-64.167

@<SCITEGIC>MOL_PROPERTY
W(SA)
SciTegic.value.DoubleValue
2.160

@<SCITEGIC>MOL_PROPERTY
Valence
SciTegic.value.DoubleValue
10.932

@<SCITEGIC>MOL_PROPERTY
Coulomb
SciTegic.value.DoubleValue
1.923

@<SCITEGIC>MOL_PROPERTY
VdW
SciTegic.value.DoubleValue
0.309

@<SCITEGIC>MOL_PROPERTY
VdW6
SciTegic.value.DoubleValue
-10.319

@<SCITEGIC>MOL_PROPERTY
VdW12
SciTegic.value.DoubleValue
10.629

@<SCITEGIC>MOL_PROPERTY
Bond
SciTegic.value.DoubleValue
0.254

@<SCITEGIC>MOL_PROPERTY
Angle
SciTegic.value.DoubleValue
3.841

@<SCITEGIC>MOL_PROPERTY
Pdih
SciTegic.value.DoubleValue
6.835

@<SCITEGIC>MOL_PROPERTY
Idih
SciTegic.value.DoubleValue
0.001

@<SCITEGIC>MOL_PROPERTY
Tether
SciTegic.value.DoubleValue
0.000

@<TRIPOS>MOLECULE
guest-s21_vm2.mol2 : vm2 ligand conformer 74
          22          21           1
SMALL
USER_CHARGES
 
@<TRIPOS>ATOM
       1    C1      20.250538   18.969390   25.264632 C.2        1 MOL1         0.6145
       2    O1      19.625596   19.130976   26.294634 O.co2      1 MOL1        -0.6735
       3    O2      20.976480   18.015978   25.062874 O.co2      1 MOL1        -0.6735
       4    C2      20.139440   20.039805   24.181796 C.3        1 MOL1        -0.1985
       5    H1      20.962273   19.903783   23.473234 H          1 MOL1         0.0740
       6    H2      20.302477   21.008567   24.668088 H          1 MOL1         0.0740
       7    C3      18.769030   20.057828   23.450010 C.3        1 MOL1        -0.1882
       8    H3      17.980020   20.138044   24.210644 H          1 MOL1         0.0742
       9    H4      18.688277   20.964984   22.836302 H          1 MOL1         0.0742
      10    C4      18.492876   18.806252   22.575835 C.3        1 MOL1        -0.1880
      11    H5      17.420414   18.579022   22.644949 H          1 MOL1         0.0742
      12    H6      19.003848   17.924711   22.984677 H          1 MOL1         0.0742
      13    C5      18.828205   18.983363   21.071435 C.3        1 MOL1        -0.1880
      14    H7      18.476266   18.096380   20.527328 H          1 MOL1         0.0742
      15    H8      18.246411   19.827203   20.676367 H          1 MOL1         0.0742
      16    C6      20.321212   19.208368   20.734426 C.3        1 MOL1        -0.1856
      17    H9      20.686483   20.120326   21.223197 H          1 MOL1         0.0742
      18    H10     20.411525   19.388707   19.654507 H          1 MOL1         0.0742
      19    C7      21.216624   18.007041   21.108358 C.3        1 MOL1        -0.2871
      20    H11     21.220246   17.829797   22.191330 H          1 MOL1         0.0754
      21    H12     22.253262   18.188253   20.796821 H          1 MOL1         0.0754
      22    H13     20.869614   17.090791   20.613587 H          1 MOL1         0.0754
@<TRIPOS>BOND
    1     1     2    1
    2     1     3    2
    3     1     4    1
    4     4     5    1
    5     4     6    1
    6     4     7    1
    7     7     8    1
    8     7     9    1
    9     7    10    1
   10    10    11    1
   11    10    12    1
   12    10    13    1
   13    13    14    1
   14    13    15    1
   15    13    16    1
   16    16    17    1
   17    16    18    1
   18    16    19    1
   19    19    20    1
   20    19    21    1
   21    19    22    1
@<TRIPOS>SUBSTRUCTURE
       1 MOL1            1 RESIDUE      1      MOL     
@<SCITEGIC>MOL_PROPERTY
VM2 Rank
SciTegic.value.IntegerValue
74

@<SCITEGIC>MOL_PROPERTY
Conf_Id
SciTegic.value.IntegerValue
175

@<SCITEGIC>MOL_PROPERTY
Probability
SciTegic.value.DoubleValue
0.00

@<SCITEGIC>MOL_PROPERTY
Sum Probability
SciTegic.value.DoubleValue
100.00

@<SCITEGIC>MOL_PROPERTY
Delta G
SciTegic.value.DoubleValue
7.235

@<SCITEGIC>MOL_PROPERTY
G
SciTegic.value.DoubleValue
-9.764

@<SCITEGIC>MOL_PROPERTY
E
SciTegic.value.DoubleValue
-30.742

@<SCITEGIC>MOL_PROPERTY
-TS
SciTegic.value.DoubleValue
20.978

@<SCITEGIC>MOL_PROPERTY
U+W
SciTegic.value.DoubleValue
-48.627

@<SCITEGIC>MOL_PROPERTY
U
SciTegic.value.DoubleValue
13.492

@<SCITEGIC>MOL_PROPERTY
W
SciTegic.value.DoubleValue
-62.119

@<SCITEGIC>MOL_PROPERTY
W(PB)
SciTegic.value.DoubleValue
-64.294

@<SCITEGIC>MOL_PROPERTY
W(SA)
SciTegic.value.DoubleValue
2.175

@<SCITEGIC>MOL_PROPERTY
Valence
SciTegic.value.DoubleValue
11.097

@<SCITEGIC>MOL_PROPERTY
Coulomb
SciTegic.value.DoubleValue
2.068

@<SCITEGIC>MOL_PROPERTY
VdW
SciTegic.value.DoubleValue
0.328

@<SCITEGIC>MOL_PROPERTY
VdW6
SciTegic.value.DoubleValue
-10.375

@<SCITEGIC>MOL_PROPERTY
VdW12
SciTegic.value.DoubleValue
10.703

@<SCITEGIC>MOL_PROPERTY
Bond
SciTegic.value.DoubleValue
0.258

@<SCITEGIC>MOL_PROPERTY
Angle
SciTegic.value.DoubleValue
3.695

@<SCITEGIC>MOL_PROPERTY
Pdih
SciTegic.value.DoubleValue
7.142

@<SCITEGIC>MOL_PROPERTY
Idih
SciTegic.value.DoubleValue
0.001

@<SCITEGIC>MOL_PROPERTY
Tether
SciTegic.value.DoubleValue
0.000

@<TRIPOS>MOLECULE
guest-s21_vm2.mol2 : vm2 ligand conformer 75
          22          21           1
SMALL
USER_CHARGES
 
@<TRIPOS>ATOM
       1    C1      20.213662   18.836188   25.107265 C.2        1 MOL1         0.6145
       2    O1      20.529187   19.778813   25.807197 O.co2      1 MOL1        -0.6735
       3    O2      20.950357   17.897573   24.877851 O.co2      1 MOL1        -0.6735
       4    C2      18.794707   18.796902   24.542484 C.3        1 MOL1        -0.1985
       5    H1      18.113757   18.719872   25.397785 H          1 MOL1         0.0740
       6    H2      18.666764   17.877149   23.961107 H          1 MOL1         0.0740
       7    C3      18.405497   20.036202   23.691777 C.3        1 MOL1        -0.1882
       8    H3      17.339377   19.975701   23.434890 H          1 MOL1         0.0742
       9    H4      18.516859   20.936007   24.312531 H          1 MOL1         0.0742
      10    C4      19.231799   20.222706   22.393958 C.3        1 MOL1        -0.1880
      11    H5      20.297700   20.313441   22.638237 H          1 MOL1         0.0742
      12    H6      18.945250   21.188704   21.956569 H          1 MOL1         0.0742
      13    C5      18.994435   19.124338   21.323252 C.3        1 MOL1        -0.1880
      14    H7      18.008170   18.666571   21.478811 H          1 MOL1         0.0742
      15    H8      18.947148   19.597483   20.332946 H          1 MOL1         0.0742
      16    C6      20.074439   18.015990   21.280759 C.3        1 MOL1        -0.1856
      17    H9      19.711567   17.196320   20.645740 H          1 MOL1         0.0742
      18    H10     20.225882   17.587898   22.279331 H          1 MOL1         0.0742
      19    C7      21.425917   18.510288   20.719458 C.3        1 MOL1        -0.2871
      20    H11     22.137094   17.677507   20.645450 H          1 MOL1         0.0754
      21    H12     21.875404   19.273613   21.366322 H          1 MOL1         0.0754
      22    H13     21.302358   18.938927   19.716501 H          1 MOL1         0.0754
@<TRIPOS>BOND
    1     1     2    1
    2     1     3    2
    3     1     4    1
    4     4     5    1
    5     4     6    1
    6     4     7    1
    7     7     8    1
    8     7     9    1
    9     7    10    1
   10    10    11    1
   11    10    12    1
   12    10    13    1
   13    13    14    1
   14    13    15    1
   15    13    16    1
   16    16    17    1
   17    16    18    1
   18    16    19    1
   19    19    20    1
   20    19    21    1
   21    19    22    1
@<TRIPOS>SUBSTRUCTURE
       1 MOL1            1 RESIDUE      1      MOL     
@<SCITEGIC>MOL_PROPERTY
VM2 Rank
SciTegic.value.IntegerValue
75

@<SCITEGIC>MOL_PROPERTY
Conf_Id
SciTegic.value.IntegerValue
151

@<SCITEGIC>MOL_PROPERTY
Probability
SciTegic.value.DoubleValue
0.00

@<SCITEGIC>MOL_PROPERTY
Sum Probability
SciTegic.value.DoubleValue
100.00

@<SCITEGIC>MOL_PROPERTY
Delta G
SciTegic.value.DoubleValue
7.341

@<SCITEGIC>MOL_PROPERTY
G
SciTegic.value.DoubleValue
-9.658

@<SCITEGIC>MOL_PROPERTY
E
SciTegic.value.DoubleValue
-30.004

@<SCITEGIC>MOL_PROPERTY
-TS
SciTegic.value.DoubleValue
20.346

@<SCITEGIC>MOL_PROPERTY
U+W
SciTegic.value.DoubleValue
-47.888

@<SCITEGIC>MOL_PROPERTY
U
SciTegic.value.DoubleValue
14.793

@<SCITEGIC>MOL_PROPERTY
W
SciTegic.value.DoubleValue
-62.682

@<SCITEGIC>MOL_PROPERTY
W(PB)
SciTegic.value.DoubleValue
-64.848

@<SCITEGIC>MOL_PROPERTY
W(SA)
SciTegic.value.DoubleValue
2.166

@<SCITEGIC>MOL_PROPERTY
Valence
SciTegic.value.DoubleValue
11.490

@<SCITEGIC>MOL_PROPERTY
Coulomb
SciTegic.value.DoubleValue
2.888

@<SCITEGIC>MOL_PROPERTY
VdW
SciTegic.value.DoubleValue
0.415

@<SCITEGIC>MOL_PROPERTY
VdW6
SciTegic.value.DoubleValue
-10.183

@<SCITEGIC>MOL_PROPERTY
VdW12
SciTegic.value.DoubleValue
10.598

@<SCITEGIC>MOL_PROPERTY
Bond
SciTegic.value.DoubleValue
0.251

@<SCITEGIC>MOL_PROPERTY
Angle
SciTegic.value.DoubleValue
3.561

@<SCITEGIC>MOL_PROPERTY
Pdih
SciTegic.value.DoubleValue
7.672

@<SCITEGIC>MOL_PROPERTY
Idih
SciTegic.value.DoubleValue
0.007

@<SCITEGIC>MOL_PROPERTY
Tether
SciTegic.value.DoubleValue
0.000

@<TRIPOS>MOLECULE
guest-s21_vm2.mol2 : vm2 ligand conformer 76
          22          21           1
SMALL
USER_CHARGES
 
@<TRIPOS>ATOM
       1    C1      19.932086   19.514257   25.440511 C.2        1 MOL1         0.6145
       2    O1      20.728491   20.424346   25.322702 O.co2      1 MOL1        -0.6735
       3    O2      19.692206   18.962415   26.496339 O.co2      1 MOL1        -0.6735
       4    C2      19.208062   19.023545   24.192023 C.3        1 MOL1        -0.1985
       5    H1      19.058140   19.882739   23.531269 H          1 MOL1         0.0740
       6    H2      18.212553   18.675622   24.492225 H          1 MOL1         0.0740
       7    C3      19.970993   17.885438   23.464108 C.3        1 MOL1        -0.1882
       8    H3      20.998579   18.197499   23.234092 H          1 MOL1         0.0742
       9    H4      20.060547   17.041739   24.162290 H          1 MOL1         0.0742
      10    C4      19.259583   17.391201   22.180139 C.3        1 MOL1        -0.1880
      11    H5      18.172217   17.514529   22.276154 H          1 MOL1         0.0742
      12    H6      19.427439   16.308421   22.100561 H          1 MOL1         0.0742
      13    C5      19.752768   18.030055   20.854870 C.3        1 MOL1        -0.1880
      14    H7      20.826946   17.841427   20.722997 H          1 MOL1         0.0742
      15    H8      19.256993   17.495464   20.033099 H          1 MOL1         0.0742
      16    C6      19.450409   19.539035   20.684940 C.3        1 MOL1        -0.1856
      17    H9      18.535634   19.809175   21.229054 H          1 MOL1         0.0742
      18    H10     19.239511   19.735008   19.624593 H          1 MOL1         0.0742
      19    C7      20.625403   20.448707   21.108369 C.3        1 MOL1        -0.2871
      20    H11     20.365221   21.504922   20.962384 H          1 MOL1         0.0754
      21    H12     21.518906   20.236743   20.507063 H          1 MOL1         0.0754
      22    H13     20.889502   20.312625   22.163375 H          1 MOL1         0.0754
@<TRIPOS>BOND
    1     1     2    1
    2     1     3    2
    3     1     4    1
    4     4     5    1
    5     4     6    1
    6     4     7    1
    7     7     8    1
    8     7     9    1
    9     7    10    1
   10    10    11    1
   11    10    12    1
   12    10    13    1
   13    13    14    1
   14    13    15    1
   15    13    16    1
   16    16    17    1
   17    16    18    1
   18    16    19    1
   19    19    20    1
   20    19    21    1
   21    19    22    1
@<TRIPOS>SUBSTRUCTURE
       1 MOL1            1 RESIDUE      1      MOL     
@<SCITEGIC>MOL_PROPERTY
VM2 Rank
SciTegic.value.IntegerValue
76

@<SCITEGIC>MOL_PROPERTY
Conf_Id
SciTegic.value.IntegerValue
562

@<SCITEGIC>MOL_PROPERTY
Probability
SciTegic.value.DoubleValue
0.00

@<SCITEGIC>MOL_PROPERTY
Sum Probability
SciTegic.value.DoubleValue
100.00

@<SCITEGIC>MOL_PROPERTY
Delta G
SciTegic.value.DoubleValue
7.562

@<SCITEGIC>MOL_PROPERTY
G
SciTegic.value.DoubleValue
-9.436

@<SCITEGIC>MOL_PROPERTY
E
SciTegic.value.DoubleValue
-29.904

@<SCITEGIC>MOL_PROPERTY
-TS
SciTegic.value.DoubleValue
20.468

@<SCITEGIC>MOL_PROPERTY
U+W
SciTegic.value.DoubleValue
-47.789

@<SCITEGIC>MOL_PROPERTY
U
SciTegic.value.DoubleValue
13.811

@<SCITEGIC>MOL_PROPERTY
W
SciTegic.value.DoubleValue
-61.600

@<SCITEGIC>MOL_PROPERTY
W(PB)
SciTegic.value.DoubleValue
-63.797

@<SCITEGIC>MOL_PROPERTY
W(SA)
SciTegic.value.DoubleValue
2.197

@<SCITEGIC>MOL_PROPERTY
Valence
SciTegic.value.DoubleValue
12.676

@<SCITEGIC>MOL_PROPERTY
Coulomb
SciTegic.value.DoubleValue
0.620

@<SCITEGIC>MOL_PROPERTY
VdW
SciTegic.value.DoubleValue
0.516

@<SCITEGIC>MOL_PROPERTY
VdW6
SciTegic.value.DoubleValue
-9.538

@<SCITEGIC>MOL_PROPERTY
VdW12
SciTegic.value.DoubleValue
10.054

@<SCITEGIC>MOL_PROPERTY
Bond
SciTegic.value.DoubleValue
0.234

@<SCITEGIC>MOL_PROPERTY
Angle
SciTegic.value.DoubleValue
3.707

@<SCITEGIC>MOL_PROPERTY
Pdih
SciTegic.value.DoubleValue
8.734

@<SCITEGIC>MOL_PROPERTY
Idih
SciTegic.value.DoubleValue
0.001

@<SCITEGIC>MOL_PROPERTY
Tether
SciTegic.value.DoubleValue
0.000

@<TRIPOS>MOLECULE
guest-s21_vm2.mol2 : vm2 ligand conformer 77
          22          21           1
SMALL
USER_CHARGES
 
@<TRIPOS>ATOM
       1    C1      19.838543   18.765595   25.243149 C.2        1 MOL1         0.6145
       2    O1      18.676525   18.680672   25.589099 O.co2      1 MOL1        -0.6735
       3    O2      20.620445   17.835778   25.278976 O.co2      1 MOL1        -0.6735
       4    C2      20.360513   20.126784   24.793106 C.3        1 MOL1        -0.1985
       5    H1      21.277603   20.319352   25.362082 H          1 MOL1         0.0740
       6    H2      19.639006   20.895695   25.094559 H          1 MOL1         0.0740
       7    C3      20.669535   20.246615   23.274596 C.3        1 MOL1        -0.1882
       8    H3      21.217013   21.185714   23.118162 H          1 MOL1         0.0742
       9    H4      21.351800   19.442494   22.971366 H          1 MOL1         0.0742
      10    C4      19.408374   20.271513   22.371730 C.3        1 MOL1        -0.1880
      11    H5      19.633015   20.825224   21.449982 H          1 MOL1         0.0742
      12    H6      18.623518   20.850030   22.877774 H          1 MOL1         0.0742
      13    C5      18.847997   18.874042   21.996758 C.3        1 MOL1        -0.1880
      14    H7      19.065938   18.140514   22.782543 H          1 MOL1         0.0742
      15    H8      17.752831   18.945949   21.952964 H          1 MOL1         0.0742
      16    C6      19.338535   18.334693   20.630438 C.3        1 MOL1        -0.1856
      17    H9      19.048958   19.032358   19.832594 H          1 MOL1         0.0742
      18    H10     18.816290   17.391498   20.418957 H          1 MOL1         0.0742
      19    C7      20.859531   18.083307   20.566147 C.3        1 MOL1        -0.2871
      20    H11     21.419825   19.023783   20.639541 H          1 MOL1         0.0754
      21    H12     21.131042   17.607840   19.614883 H          1 MOL1         0.0754
      22    H13     21.182590   17.421785   21.380665 H          1 MOL1         0.0754
@<TRIPOS>BOND
    1     1     2    1
    2     1     3    2
    3     1     4    1
    4     4     5    1
    5     4     6    1
    6     4     7    1
    7     7     8    1
    8     7     9    1
    9     7    10    1
   10    10    11    1
   11    10    12    1
   12    10    13    1
   13    13    14    1
   14    13    15    1
   15    13    16    1
   16    16    17    1
   17    16    18    1
   18    16    19    1
   19    19    20    1
   20    19    21    1
   21    19    22    1
@<TRIPOS>SUBSTRUCTURE
       1 MOL1            1 RESIDUE      1      MOL     
@<SCITEGIC>MOL_PROPERTY
VM2 Rank
SciTegic.value.IntegerValue
77

@<SCITEGIC>MOL_PROPERTY
Conf_Id
SciTegic.value.IntegerValue
362

@<SCITEGIC>MOL_PROPERTY
Probability
SciTegic.value.DoubleValue
0.00

@<SCITEGIC>MOL_PROPERTY
Sum Probability
SciTegic.value.DoubleValue
100.00

@<SCITEGIC>MOL_PROPERTY
Delta G
SciTegic.value.DoubleValue
8.167

@<SCITEGIC>MOL_PROPERTY
G
SciTegic.value.DoubleValue
-8.831

@<SCITEGIC>MOL_PROPERTY
E
SciTegic.value.DoubleValue
-29.229

@<SCITEGIC>MOL_PROPERTY
-TS
SciTegic.value.DoubleValue
20.398

@<SCITEGIC>MOL_PROPERTY
U+W
SciTegic.value.DoubleValue
-47.114

@<SCITEGIC>MOL_PROPERTY
U
SciTegic.value.DoubleValue
15.358

@<SCITEGIC>MOL_PROPERTY
W
SciTegic.value.DoubleValue
-62.471

@<SCITEGIC>MOL_PROPERTY
W(PB)
SciTegic.value.DoubleValue
-64.649

@<SCITEGIC>MOL_PROPERTY
W(SA)
SciTegic.value.DoubleValue
2.177

@<SCITEGIC>MOL_PROPERTY
Valence
SciTegic.value.DoubleValue
12.193

@<SCITEGIC>MOL_PROPERTY
Coulomb
SciTegic.value.DoubleValue
2.677

@<SCITEGIC>MOL_PROPERTY
VdW
SciTegic.value.DoubleValue
0.488

@<SCITEGIC>MOL_PROPERTY
VdW6
SciTegic.value.DoubleValue
-10.169

@<SCITEGIC>MOL_PROPERTY
VdW12
SciTegic.value.DoubleValue
10.657

@<SCITEGIC>MOL_PROPERTY
Bond
SciTegic.value.DoubleValue
0.265

@<SCITEGIC>MOL_PROPERTY
Angle
SciTegic.value.DoubleValue
3.626

@<SCITEGIC>MOL_PROPERTY
Pdih
SciTegic.value.DoubleValue
8.298

@<SCITEGIC>MOL_PROPERTY
Idih
SciTegic.value.DoubleValue
0.004

@<SCITEGIC>MOL_PROPERTY
Tether
SciTegic.value.DoubleValue
0.000

@<TRIPOS>MOLECULE
guest-s21_vm2.mol2 : vm2 ligand conformer 78
          22          21           1
SMALL
USER_CHARGES
 
@<TRIPOS>ATOM
       1    C1      20.164019   19.063602   25.234276 C.2        1 MOL1         0.6145
       2    O1      20.361152   20.222812   25.541770 O.co2      1 MOL1        -0.6735
       3    O2      21.022309   18.203709   25.267983 O.co2      1 MOL1        -0.6735
       4    C2      18.749229   18.651928   24.838399 C.3        1 MOL1        -0.1985
       5    H1      18.056112   19.446791   25.139152 H          1 MOL1         0.0740
       6    H2      18.494361   17.771648   25.440079 H          1 MOL1         0.0740
       7    C3      18.556563   18.312723   23.333890 C.3        1 MOL1        -0.1882
       8    H3      19.287920   17.553538   23.029242 H          1 MOL1         0.0742
       9    H4      17.568592   17.846757   23.220310 H          1 MOL1         0.0742
      10    C4      18.615413   19.545557   22.394233 C.3        1 MOL1        -0.1880
      11    H5      18.124236   20.392600   22.892254 H          1 MOL1         0.0742
      12    H6      18.016049   19.345694   21.495626 H          1 MOL1         0.0742
      13    C5      20.044775   19.968455   21.963393 C.3        1 MOL1        -0.1880
      14    H7      20.068687   21.064051   21.888748 H          1 MOL1         0.0742
      15    H8      20.779944   19.707526   22.734413 H          1 MOL1         0.0742
      16    C6      20.496384   19.394388   20.597799 C.3        1 MOL1        -0.1856
      17    H9      21.475123   19.824321   20.344208 H          1 MOL1         0.0742
      18    H10     19.802867   19.723082   19.811581 H          1 MOL1         0.0742
      19    C7      20.610156   17.855827   20.572257 C.3        1 MOL1        -0.2871
      20    H11     21.030094   17.516902   19.616499 H          1 MOL1         0.0754
      21    H12     19.626540   17.383973   20.689157 H          1 MOL1         0.0754
      22    H13     21.265394   17.497498   21.377042 H          1 MOL1         0.0754
@<TRIPOS>BOND
    1     1     2    1
    2     1     3    2
    3     1     4    1
    4     4     5    1
    5     4     6    1
    6     4     7    1
    7     7     8    1
    8     7     9    1
    9     7    10    1
   10    10    11    1
   11    10    12    1
   12    10    13    1
   13    13    14    1
   14    13    15    1
   15    13    16    1
   16    16    17    1
   17    16    18    1
   18    16    19    1
   19    19    20    1
   20    19    21    1
   21    19    22    1
@<TRIPOS>SUBSTRUCTURE
       1 MOL1            1 RESIDUE      1      MOL     
@<SCITEGIC>MOL_PROPERTY
VM2 Rank
SciTegic.value.IntegerValue
78

@<SCITEGIC>MOL_PROPERTY
Conf_Id
SciTegic.value.IntegerValue
496

@<SCITEGIC>MOL_PROPERTY
Probability
SciTegic.value.DoubleValue
0.00

@<SCITEGIC>MOL_PROPERTY
Sum Probability
SciTegic.value.DoubleValue
100.00

@<SCITEGIC>MOL_PROPERTY
Delta G
SciTegic.value.DoubleValue
8.246

@<SCITEGIC>MOL_PROPERTY
G
SciTegic.value.DoubleValue
-8.752

@<SCITEGIC>MOL_PROPERTY
E
SciTegic.value.DoubleValue
-29.150

@<SCITEGIC>MOL_PROPERTY
-TS
SciTegic.value.DoubleValue
20.398

@<SCITEGIC>MOL_PROPERTY
U+W
SciTegic.value.DoubleValue
-47.035

@<SCITEGIC>MOL_PROPERTY
U
SciTegic.value.DoubleValue
15.358

@<SCITEGIC>MOL_PROPERTY
W
SciTegic.value.DoubleValue
-62.393

@<SCITEGIC>MOL_PROPERTY
W(PB)
SciTegic.value.DoubleValue
-64.565

@<SCITEGIC>MOL_PROPERTY
W(SA)
SciTegic.value.DoubleValue
2.172

@<SCITEGIC>MOL_PROPERTY
Valence
SciTegic.value.DoubleValue
12.193

@<SCITEGIC>MOL_PROPERTY
Coulomb
SciTegic.value.DoubleValue
2.677

@<SCITEGIC>MOL_PROPERTY
VdW
SciTegic.value.DoubleValue
0.488

@<SCITEGIC>MOL_PROPERTY
VdW6
SciTegic.value.DoubleValue
-10.169

@<SCITEGIC>MOL_PROPERTY
VdW12
SciTegic.value.DoubleValue
10.657

@<SCITEGIC>MOL_PROPERTY
Bond
SciTegic.value.DoubleValue
0.265

@<SCITEGIC>MOL_PROPERTY
Angle
SciTegic.value.DoubleValue
3.624

@<SCITEGIC>MOL_PROPERTY
Pdih
SciTegic.value.DoubleValue
8.299

@<SCITEGIC>MOL_PROPERTY
Idih
SciTegic.value.DoubleValue
0.005

@<SCITEGIC>MOL_PROPERTY
Tether
SciTegic.value.DoubleValue
0.000

@<TRIPOS>MOLECULE
guest-s21_vm2.mol2 : vm2 ligand conformer 79
          22          21           1
SMALL
USER_CHARGES
 
@<TRIPOS>ATOM
       1    C1      20.326085   18.844659   24.891587 C.2        1 MOL1         0.6145
       2    O1      20.809398   19.914441   25.208328 O.co2      1 MOL1        -0.6735
       3    O2      20.972548   17.818731   24.812113 O.co2      1 MOL1        -0.6735
       4    C2      18.810647   18.749636   24.707470 C.3        1 MOL1        -0.1985
       5    H1      18.382336   18.761193   25.716233 H          1 MOL1         0.0740
       6    H2      18.564049   17.772654   24.274907 H          1 MOL1         0.0740
       7    C3      18.157794   19.887593   23.871947 C.3        1 MOL1        -0.1882
       8    H3      17.101592   19.957639   24.165029 H          1 MOL1         0.0742
       9    H4      18.605424   20.854516   24.140313 H          1 MOL1         0.0742
      10    C4      18.202809   19.693607   22.334526 C.3        1 MOL1        -0.1880
      11    H5      17.631427   20.515633   21.882045 H          1 MOL1         0.0742
      12    H6      17.668990   18.774620   22.056211 H          1 MOL1         0.0742
      13    C5      19.622621   19.700898   21.715923 C.3        1 MOL1        -0.1880
      14    H7      19.596433   20.280118   20.782864 H          1 MOL1         0.0742
      15    H8      20.324033   20.225090   22.379470 H          1 MOL1         0.0742
      16    C6      20.144575   18.283739   21.389685 C.3        1 MOL1        -0.1856
      17    H9      19.473637   17.801428   20.665676 H          1 MOL1         0.0742
      18    H10     20.136333   17.658693   22.291248 H          1 MOL1         0.0742
      19    C7      21.573524   18.325694   20.812421 C.3        1 MOL1        -0.2871
      20    H11     22.272379   18.767230   21.535232 H          1 MOL1         0.0754
      21    H12     21.609090   18.921104   19.890815 H          1 MOL1         0.0754
      22    H13     21.925288   17.312875   20.577265 H          1 MOL1         0.0754
@<TRIPOS>BOND
    1     1     2    1
    2     1     3    2
    3     1     4    1
    4     4     5    1
    5     4     6    1
    6     4     7    1
    7     7     8    1
    8     7     9    1
    9     7    10    1
   10    10    11    1
   11    10    12    1
   12    10    13    1
   13    13    14    1
   14    13    15    1
   15    13    16    1
   16    16    17    1
   17    16    18    1
   18    16    19    1
   19    19    20    1
   20    19    21    1
   21    19    22    1
@<TRIPOS>SUBSTRUCTURE
       1 MOL1            1 RESIDUE      1      MOL     
@<SCITEGIC>MOL_PROPERTY
VM2 Rank
SciTegic.value.IntegerValue
79

@<SCITEGIC>MOL_PROPERTY
Conf_Id
SciTegic.value.IntegerValue
195

@<SCITEGIC>MOL_PROPERTY
Probability
SciTegic.value.DoubleValue
0.00

@<SCITEGIC>MOL_PROPERTY
Sum Probability
SciTegic.value.DoubleValue
100.00

@<SCITEGIC>MOL_PROPERTY
Delta G
SciTegic.value.DoubleValue
8.528

@<SCITEGIC>MOL_PROPERTY
G
SciTegic.value.DoubleValue
-8.471

@<SCITEGIC>MOL_PROPERTY
E
SciTegic.value.DoubleValue
-29.145

@<SCITEGIC>MOL_PROPERTY
-TS
SciTegic.value.DoubleValue
20.675

@<SCITEGIC>MOL_PROPERTY
U+W
SciTegic.value.DoubleValue
-47.030

@<SCITEGIC>MOL_PROPERTY
U
SciTegic.value.DoubleValue
15.739

@<SCITEGIC>MOL_PROPERTY
W
SciTegic.value.DoubleValue
-62.769

@<SCITEGIC>MOL_PROPERTY
W(PB)
SciTegic.value.DoubleValue
-64.934

@<SCITEGIC>MOL_PROPERTY
W(SA)
SciTegic.value.DoubleValue
2.164

@<SCITEGIC>MOL_PROPERTY
Valence
SciTegic.value.DoubleValue
12.167

@<SCITEGIC>MOL_PROPERTY
Coulomb
SciTegic.value.DoubleValue
3.363

@<SCITEGIC>MOL_PROPERTY
VdW
SciTegic.value.DoubleValue
0.210

@<SCITEGIC>MOL_PROPERTY
VdW6
SciTegic.value.DoubleValue
-10.463

@<SCITEGIC>MOL_PROPERTY
VdW12
SciTegic.value.DoubleValue
10.673

@<SCITEGIC>MOL_PROPERTY
Bond
SciTegic.value.DoubleValue
0.233

@<SCITEGIC>MOL_PROPERTY
Angle
SciTegic.value.DoubleValue
3.822

@<SCITEGIC>MOL_PROPERTY
Pdih
SciTegic.value.DoubleValue
8.088

@<SCITEGIC>MOL_PROPERTY
Idih
SciTegic.value.DoubleValue
0.023

@<SCITEGIC>MOL_PROPERTY
Tether
SciTegic.value.DoubleValue
0.000

@<TRIPOS>MOLECULE
guest-s21_vm2.mol2 : vm2 ligand conformer 80
          22          21           1
SMALL
USER_CHARGES
 
@<TRIPOS>ATOM
       1    C1      20.342447   19.326525   24.867678 C.2        1 MOL1         0.6145
       2    O1      20.753463   18.262956   25.289858 O.co2      1 MOL1        -0.6735
       3    O2      21.056400   20.293723   24.690029 O.co2      1 MOL1        -0.6735
       4    C2      18.836270   19.505107   24.670169 C.3        1 MOL1        -0.1985
       5    H1      18.654739   20.449210   24.142783 H          1 MOL1         0.0740
       6    H2      18.411594   19.621794   25.673773 H          1 MOL1         0.0740
       7    C3      18.105224   18.337178   23.948523 C.3        1 MOL1        -0.1882
       8    H3      18.487403   17.373333   24.312219 H          1 MOL1         0.0742
       9    H4      17.047694   18.367834   24.243573 H          1 MOL1         0.0742
      10    C4      18.158082   18.375444   22.399633 C.3        1 MOL1        -0.1880
      11    H5      17.686693   19.296563   22.030460 H          1 MOL1         0.0742
      12    H6      17.530906   17.553407   22.028351 H          1 MOL1         0.0742
      13    C5      19.572063   18.211313   21.789462 C.3        1 MOL1        -0.1880
      14    H7      20.238632   17.708688   22.503679 H          1 MOL1         0.0742
      15    H8      19.503617   17.546229   20.917821 H          1 MOL1         0.0742
      16    C6      20.187590   19.550937   21.327142 C.3        1 MOL1        -0.1856
      17    H9      20.224711   20.260746   22.162820 H          1 MOL1         0.0742
      18    H10     19.548375   20.003986   20.556999 H          1 MOL1         0.0742
      19    C7      21.608461   19.355817   20.761506 C.3        1 MOL1        -0.2871
      20    H11     22.278281   18.941205   21.526519 H          1 MOL1         0.0754
      21    H12     22.027161   20.314469   20.429065 H          1 MOL1         0.0754
      22    H13     21.600527   18.671646   19.903029 H          1 MOL1         0.0754
@<TRIPOS>BOND
    1     1     2    1
    2     1     3    2
    3     1     4    1
    4     4     5    1
    5     4     6    1
    6     4     7    1
    7     7     8    1
    8     7     9    1
    9     7    10    1
   10    10    11    1
   11    10    12    1
   12    10    13    1
   13    13    14    1
   14    13    15    1
   15    13    16    1
   16    16    17    1
   17    16    18    1
   18    16    19    1
   19    19    20    1
   20    19    21    1
   21    19    22    1
@<TRIPOS>SUBSTRUCTURE
       1 MOL1            1 RESIDUE      1      MOL     
@<SCITEGIC>MOL_PROPERTY
VM2 Rank
SciTegic.value.IntegerValue
80

@<SCITEGIC>MOL_PROPERTY
Conf_Id
SciTegic.value.IntegerValue
257

@<SCITEGIC>MOL_PROPERTY
Probability
SciTegic.value.DoubleValue
0.00

@<SCITEGIC>MOL_PROPERTY
Sum Probability
SciTegic.value.DoubleValue
100.00

@<SCITEGIC>MOL_PROPERTY
Delta G
SciTegic.value.DoubleValue
8.583

@<SCITEGIC>MOL_PROPERTY
G
SciTegic.value.DoubleValue
-8.416

@<SCITEGIC>MOL_PROPERTY
E
SciTegic.value.DoubleValue
-29.090

@<SCITEGIC>MOL_PROPERTY
-TS
SciTegic.value.DoubleValue
20.675

@<SCITEGIC>MOL_PROPERTY
U+W
SciTegic.value.DoubleValue
-46.975

@<SCITEGIC>MOL_PROPERTY
U
SciTegic.value.DoubleValue
15.738

@<SCITEGIC>MOL_PROPERTY
W
SciTegic.value.DoubleValue
-62.713

@<SCITEGIC>MOL_PROPERTY
W(PB)
SciTegic.value.DoubleValue
-64.888

@<SCITEGIC>MOL_PROPERTY
W(SA)
SciTegic.value.DoubleValue
2.174

@<SCITEGIC>MOL_PROPERTY
Valence
SciTegic.value.DoubleValue
12.167

@<SCITEGIC>MOL_PROPERTY
Coulomb
SciTegic.value.DoubleValue
3.362

@<SCITEGIC>MOL_PROPERTY
VdW
SciTegic.value.DoubleValue
0.210

@<SCITEGIC>MOL_PROPERTY
VdW6
SciTegic.value.DoubleValue
-10.463

@<SCITEGIC>MOL_PROPERTY
VdW12
SciTegic.value.DoubleValue
10.673

@<SCITEGIC>MOL_PROPERTY
Bond
SciTegic.value.DoubleValue
0.233

@<SCITEGIC>MOL_PROPERTY
Angle
SciTegic.value.DoubleValue
3.823

@<SCITEGIC>MOL_PROPERTY
Pdih
SciTegic.value.DoubleValue
8.088

@<SCITEGIC>MOL_PROPERTY
Idih
SciTegic.value.DoubleValue
0.022

@<SCITEGIC>MOL_PROPERTY
Tether
SciTegic.value.DoubleValue
0.000

@<TRIPOS>MOLECULE
guest-s21_vm2.mol2 : vm2 ligand conformer 81
          22          21           1
SMALL
USER_CHARGES
 
@<TRIPOS>ATOM
       1    C1      19.774503   19.541166   25.029306 C.2        1 MOL1         0.6145
       2    O1      20.041227   20.718193   24.886931 O.co2      1 MOL1        -0.6735
       3    O2      18.759298   19.148294   25.570802 O.co2      1 MOL1        -0.6735
       4    C2      20.823698   18.512119   24.606871 C.3        1 MOL1        -0.1985
       5    H1      21.286459   18.152664   25.533073 H          1 MOL1         0.0740
       6    H2      21.613108   19.019258   24.039243 H          1 MOL1         0.0740
       7    C3      20.285971   17.291531   23.806715 C.3        1 MOL1        -0.1882
       8    H3      21.000194   16.466221   23.929547 H          1 MOL1         0.0742
       9    H4      19.343720   16.938534   24.248211 H          1 MOL1         0.0742
      10    C4      20.102328   17.527702   22.285642 C.3        1 MOL1        -0.1880
      11    H5      19.820576   16.567445   21.832648 H          1 MOL1         0.0742
      12    H6      21.066893   17.794826   21.835728 H          1 MOL1         0.0742
      13    C5      19.014328   18.569149   21.916396 C.3        1 MOL1        -0.1880
      14    H7      18.415334   18.182234   21.080840 H          1 MOL1         0.0742
      15    H8      18.311984   18.683151   22.753238 H          1 MOL1         0.0742
      16    C6      19.575823   19.954964   21.517334 C.3        1 MOL1        -0.1856
      17    H9      20.293595   20.305121   22.269950 H          1 MOL1         0.0742
      18    H10     18.752373   20.682101   21.514131 H          1 MOL1         0.0742
      19    C7      20.242824   19.955882   20.124003 C.3        1 MOL1        -0.2871
      20    H11     21.113453   19.289419   20.092963 H          1 MOL1         0.0754
      21    H12     20.585721   20.965600   19.863781 H          1 MOL1         0.0754
      22    H13     19.535288   19.630526   19.350351 H          1 MOL1         0.0754
@<TRIPOS>BOND
    1     1     2    1
    2     1     3    2
    3     1     4    1
    4     4     5    1
    5     4     6    1
    6     4     7    1
    7     7     8    1
    8     7     9    1
    9     7    10    1
   10    10    11    1
   11    10    12    1
   12    10    13    1
   13    13    14    1
   14    13    15    1
   15    13    16    1
   16    16    17    1
   17    16    18    1
   18    16    19    1
   19    19    20    1
   20    19    21    1
   21    19    22    1
@<TRIPOS>SUBSTRUCTURE
       1 MOL1            1 RESIDUE      1      MOL     
@<SCITEGIC>MOL_PROPERTY
VM2 Rank
SciTegic.value.IntegerValue
81

@<SCITEGIC>MOL_PROPERTY
Conf_Id
SciTegic.value.IntegerValue
553

@<SCITEGIC>MOL_PROPERTY
Probability
SciTegic.value.DoubleValue
0.00

@<SCITEGIC>MOL_PROPERTY
Sum Probability
SciTegic.value.DoubleValue
100.00

@<SCITEGIC>MOL_PROPERTY
Delta G
SciTegic.value.DoubleValue
8.947

@<SCITEGIC>MOL_PROPERTY
G
SciTegic.value.DoubleValue
-8.052

@<SCITEGIC>MOL_PROPERTY
E
SciTegic.value.DoubleValue
-28.785

@<SCITEGIC>MOL_PROPERTY
-TS
SciTegic.value.DoubleValue
20.734

@<SCITEGIC>MOL_PROPERTY
U+W
SciTegic.value.DoubleValue
-46.670

@<SCITEGIC>MOL_PROPERTY
U
SciTegic.value.DoubleValue
15.751

@<SCITEGIC>MOL_PROPERTY
W
SciTegic.value.DoubleValue
-62.421

@<SCITEGIC>MOL_PROPERTY
W(PB)
SciTegic.value.DoubleValue
-64.591

@<SCITEGIC>MOL_PROPERTY
W(SA)
SciTegic.value.DoubleValue
2.170

@<SCITEGIC>MOL_PROPERTY
Valence
SciTegic.value.DoubleValue
12.808

@<SCITEGIC>MOL_PROPERTY
Coulomb
SciTegic.value.DoubleValue
2.442

@<SCITEGIC>MOL_PROPERTY
VdW
SciTegic.value.DoubleValue
0.501

@<SCITEGIC>MOL_PROPERTY
VdW6
SciTegic.value.DoubleValue
-10.774

@<SCITEGIC>MOL_PROPERTY
VdW12
SciTegic.value.DoubleValue
11.274

@<SCITEGIC>MOL_PROPERTY
Bond
SciTegic.value.DoubleValue
0.268

@<SCITEGIC>MOL_PROPERTY
Angle
SciTegic.value.DoubleValue
3.894

@<SCITEGIC>MOL_PROPERTY
Pdih
SciTegic.value.DoubleValue
8.628

@<SCITEGIC>MOL_PROPERTY
Idih
SciTegic.value.DoubleValue
0.017

@<SCITEGIC>MOL_PROPERTY
Tether
SciTegic.value.DoubleValue
0.000

