VeraChem MOL file


 22 21  0  0  0  0  0  0  0  0999 V2000     
   19.8314   19.1341   26.1875 C   0  0  0  0  0  0  0  0  0  0  0  0
   20.0589   20.2373   26.6431 O   0  5  0  0  0  0  0  0  0  0  0  0
   20.1743   18.0999   26.7254 O   0  0  0  0  0  0  0  0  0  0  0  0
   19.0946   19.0431   24.8559 C   0  0  0  0  0  0  0  0  0  0  0  0
   18.3978   19.8876   24.7937 H   0  0  0  0  0  0  0  0  0  0  0  0
   18.4931   18.1261   24.8613 H   0  0  0  0  0  0  0  0  0  0  0  0
   20.0506   19.0480   23.6377 C   0  0  0  0  0  0  0  0  0  0  0  0
   20.6546   19.9659   23.6541 H   0  0  0  0  0  0  0  0  0  0  0  0
   20.7498   18.2045   23.7217 H   0  0  0  0  0  0  0  0  0  0  0  0
   19.2808   18.9552   22.3025 C   0  0  0  0  0  0  0  0  0  0  0  0
   18.5819   19.7991   22.2223 H   0  0  0  0  0  0  0  0  0  0  0  0
   18.6771   18.0373   22.2898 H   0  0  0  0  0  0  0  0  0  0  0  0
   20.2363   18.9604   21.0900 C   0  0  0  0  0  0  0  0  0  0  0  0
   20.8403   19.8781   21.1024 H   0  0  0  0  0  0  0  0  0  0  0  0
   20.9354   18.1165   21.1698 H   0  0  0  0  0  0  0  0  0  0  0  0
   19.4677   18.8678   19.7552 C   0  0  0  0  0  0  0  0  0  0  0  0
   18.7687   19.7115   19.6708 H   0  0  0  0  0  0  0  0  0  0  0  0
   18.8638   17.9499   19.7382 H   0  0  0  0  0  0  0  0  0  0  0  0
   20.4254   18.8732   18.5468 C   0  0  0  0  0  0  0  0  0  0  0  0
   21.0203   19.7956   18.5212 H   0  0  0  0  0  0  0  0  0  0  0  0
   19.8624   18.8068   17.6067 H   0  0  0  0  0  0  0  0  0  0  0  0
   21.1161   18.0208   18.5892 H   0  0  0  0  0  0  0  0  0  0  0  0
  1  2  1  0  0  0  0
  1  3  2  0  0  0  0
  1  4  1  0  0  0  0
  4  5  1  0  0  0  0
  4  6  1  0  0  0  0
  4  7  1  0  0  0  0
  7  8  1  0  0  0  0
  7  9  1  0  0  0  0
  7 10  1  0  0  0  0
 10 11  1  0  0  0  0
 10 12  1  0  0  0  0
 10 13  1  0  0  0  0
 13 14  1  0  0  0  0
 13 15  1  0  0  0  0
 13 16  1  0  0  0  0
 16 17  1  0  0  0  0
 16 18  1  0  0  0  0
 16 19  1  0  0  0  0
 19 20  1  0  0  0  0
 19 21  1  0  0  0  0
 19 22  1  0  0  0  0
M  END
> <VM2 Rank>
1

> <Conf_Id>
202

> <Probability>
32.02

> <Sum Probability>
32.02

> <Delta G>
0.000

> <G>
-16.999

> <E>
-36.566

> <-TS>
19.568

> <U+W>
-54.451

> <U>
5.779

> <W>
-60.229

> <W(PB)>
-62.557

> <W(SA)>
2.328

> <Valence>
7.101

> <Coulomb>
-2.079

> <VdW>
0.757

> <VdW6>
-6.496

> <VdW12>
7.253

> <Bond>
0.100

> <Angle>
2.262

> <Pdih>
4.738

> <Idih>
0.001

> <Tether>
0.000

$$$$
VeraChem MOL file


 22 21  0  0  0  0  0  0  0  0999 V2000     
   19.7290   18.8549   25.9655 C   0  0  0  0  0  0  0  0  0  0  0  0
   19.2131   19.6430   26.7332 O   0  5  0  0  0  0  0  0  0  0  0  0
   20.5232   18.0021   26.3099 O   0  0  0  0  0  0  0  0  0  0  0  0
   19.3783   18.9570   24.4854 C   0  0  0  0  0  0  0  0  0  0  0  0
   18.3434   19.3104   24.4047 H   0  0  0  0  0  0  0  0  0  0  0  0
   19.4107   17.9456   24.0649 H   0  0  0  0  0  0  0  0  0  0  0  0
   20.3292   19.9035   23.7076 C   0  0  0  0  0  0  0  0  0  0  0  0
   20.3429   20.8804   24.2104 H   0  0  0  0  0  0  0  0  0  0  0  0
   21.3556   19.5146   23.7577 H   0  0  0  0  0  0  0  0  0  0  0  0
   19.9206   20.1122   22.2300 C   0  0  0  0  0  0  0  0  0  0  0  0
   20.5734   20.8804   21.7933 H   0  0  0  0  0  0  0  0  0  0  0  0
   18.8978   20.5106   22.1839 H   0  0  0  0  0  0  0  0  0  0  0  0
   20.0179   18.8259   21.3776 C   0  0  0  0  0  0  0  0  0  0  0  0
   21.0268   18.4006   21.4683 H   0  0  0  0  0  0  0  0  0  0  0  0
   19.3161   18.0713   21.7558 H   0  0  0  0  0  0  0  0  0  0  0  0
   19.7077   19.1023   19.8914 C   0  0  0  0  0  0  0  0  0  0  0  0
   20.4102   19.8505   19.4987 H   0  0  0  0  0  0  0  0  0  0  0  0
   18.6999   19.5299   19.7970 H   0  0  0  0  0  0  0  0  0  0  0  0
   19.8011   17.8181   19.0433 C   0  0  0  0  0  0  0  0  0  0  0  0
   20.8089   17.3856   19.0951 H   0  0  0  0  0  0  0  0  0  0  0  0
   19.5782   18.0329   17.9901 H   0  0  0  0  0  0  0  0  0  0  0  0
   19.0854   17.0629   19.3939 H   0  0  0  0  0  0  0  0  0  0  0  0
  1  2  1  0  0  0  0
  1  3  2  0  0  0  0
  1  4  1  0  0  0  0
  4  5  1  0  0  0  0
  4  6  1  0  0  0  0
  4  7  1  0  0  0  0
  7  8  1  0  0  0  0
  7  9  1  0  0  0  0
  7 10  1  0  0  0  0
 10 11  1  0  0  0  0
 10 12  1  0  0  0  0
 10 13  1  0  0  0  0
 13 14  1  0  0  0  0
 13 15  1  0  0  0  0
 13 16  1  0  0  0  0
 16 17  1  0  0  0  0
 16 18  1  0  0  0  0
 16 19  1  0  0  0  0
 19 20  1  0  0  0  0
 19 21  1  0  0  0  0
 19 22  1  0  0  0  0
M  END
> <VM2 Rank>
2

> <Conf_Id>
313

> <Probability>
8.24

> <Sum Probability>
40.27

> <Delta G>
0.809

> <G>
-16.190

> <E>
-35.867

> <-TS>
19.677

> <U+W>
-53.752

> <U>
6.782

> <W>
-60.534

> <W(PB)>
-62.847

> <W(SA)>
2.313

> <Valence>
7.621

> <Coulomb>
-1.711

> <VdW>
0.872

> <VdW6>
-7.188

> <VdW12>
8.060

> <Bond>
0.142

> <Angle>
2.504

> <Pdih>
4.974

> <Idih>
0.001

> <Tether>
0.000

$$$$
VeraChem MOL file


 22 21  0  0  0  0  0  0  0  0999 V2000     
   20.1334   19.1303   25.9560 C   0  0  0  0  0  0  0  0  0  0  0  0
   19.6139   19.9160   26.7236 O   0  5  0  0  0  0  0  0  0  0  0  0
   20.6478   18.0869   26.3070 O   0  0  0  0  0  0  0  0  0  0  0  0
   20.1189   19.4613   24.4679 C   0  0  0  0  0  0  0  0  0  0  0  0
   21.0341   19.0511   24.0264 H   0  0  0  0  0  0  0  0  0  0  0  0
   20.1661   20.5517   24.3615 H   0  0  0  0  0  0  0  0  0  0  0  0
   18.8655   18.9067   23.7423 C   0  0  0  0  0  0  0  0  0  0  0  0
   18.8533   17.8106   23.8170 H   0  0  0  0  0  0  0  0  0  0  0  0
   17.9680   19.2632   24.2667 H   0  0  0  0  0  0  0  0  0  0  0  0
   18.7730   19.3307   22.2572 C   0  0  0  0  0  0  0  0  0  0  0  0
   18.7753   20.4271   22.1868 H   0  0  0  0  0  0  0  0  0  0  0  0
   17.8054   18.9957   21.8589 H   0  0  0  0  0  0  0  0  0  0  0  0
   19.9060   18.7496   21.3802 C   0  0  0  0  0  0  0  0  0  0  0  0
   20.8770   19.1337   21.7189 H   0  0  0  0  0  0  0  0  0  0  0  0
   19.9351   17.6573   21.4940 H   0  0  0  0  0  0  0  0  0  0  0  0
   19.7144   19.1070   19.8913 C   0  0  0  0  0  0  0  0  0  0  0  0
   19.6828   20.1991   19.7738 H   0  0  0  0  0  0  0  0  0  0  0  0
   18.7487   18.7196   19.5380 H   0  0  0  0  0  0  0  0  0  0  0  0
   20.8472   18.5304   19.0184 C   0  0  0  0  0  0  0  0  0  0  0  0
   21.8229   18.9265   19.3290 H   0  0  0  0  0  0  0  0  0  0  0  0
   20.6948   18.7934   17.9636 H   0  0  0  0  0  0  0  0  0  0  0  0
   20.8820   17.4356   19.0932 H   0  0  0  0  0  0  0  0  0  0  0  0
  1  2  1  0  0  0  0
  1  3  2  0  0  0  0
  1  4  1  0  0  0  0
  4  5  1  0  0  0  0
  4  6  1  0  0  0  0
  4  7  1  0  0  0  0
  7  8  1  0  0  0  0
  7  9  1  0  0  0  0
  7 10  1  0  0  0  0
 10 11  1  0  0  0  0
 10 12  1  0  0  0  0
 10 13  1  0  0  0  0
 13 14  1  0  0  0  0
 13 15  1  0  0  0  0
 13 16  1  0  0  0  0
 16 17  1  0  0  0  0
 16 18  1  0  0  0  0
 16 19  1  0  0  0  0
 19 20  1  0  0  0  0
 19 21  1  0  0  0  0
 19 22  1  0  0  0  0
M  END
> <VM2 Rank>
3

> <Conf_Id>
324

> <Probability>
7.40

> <Sum Probability>
47.67

> <Delta G>
0.873

> <G>
-16.125

> <E>
-35.803

> <-TS>
19.678

> <U+W>
-53.688

> <U>
6.782

> <W>
-60.470

> <W(PB)>
-62.789

> <W(SA)>
2.320

> <Valence>
7.621

> <Coulomb>
-1.711

> <VdW>
0.872

> <VdW6>
-7.188

> <VdW12>
8.060

> <Bond>
0.142

> <Angle>
2.504

> <Pdih>
4.974

> <Idih>
0.001

> <Tether>
0.000

$$$$
VeraChem MOL file


 22 21  0  0  0  0  0  0  0  0999 V2000     
   19.9962   19.0329   25.9874 C   0  0  0  0  0  0  0  0  0  0  0  0
   20.3227   20.0802   26.5099 O   0  5  0  0  0  0  0  0  0  0  0  0
   20.4206   17.9478   26.3322 O   0  0  0  0  0  0  0  0  0  0  0  0
   19.0155   19.0851   24.8213 C   0  0  0  0  0  0  0  0  0  0  0  0
   18.3316   19.9258   24.9890 H   0  0  0  0  0  0  0  0  0  0  0  0
   18.4137   18.1685   24.8409 H   0  0  0  0  0  0  0  0  0  0  0  0
   19.7190   19.2327   23.4497 C   0  0  0  0  0  0  0  0  0  0  0  0
   20.3242   20.1498   23.4493 H   0  0  0  0  0  0  0  0  0  0  0  0
   20.4117   18.3917   23.3143 H   0  0  0  0  0  0  0  0  0  0  0  0
   18.7020   19.2782   22.2857 C   0  0  0  0  0  0  0  0  0  0  0  0
   17.9731   20.0769   22.4798 H   0  0  0  0  0  0  0  0  0  0  0  0
   18.1329   18.3390   22.2536 H   0  0  0  0  0  0  0  0  0  0  0  0
   19.3546   19.5354   20.9068 C   0  0  0  0  0  0  0  0  0  0  0  0
   18.5566   19.6771   20.1652 H   0  0  0  0  0  0  0  0  0  0  0  0
   19.9207   20.4765   20.9373 H   0  0  0  0  0  0  0  0  0  0  0  0
   20.2770   18.3877   20.4375 C   0  0  0  0  0  0  0  0  0  0  0  0
   19.7258   17.4374   20.4575 H   0  0  0  0  0  0  0  0  0  0  0  0
   21.1268   18.2801   21.1243 H   0  0  0  0  0  0  0  0  0  0  0  0
   20.8124   18.6391   19.0135 C   0  0  0  0  0  0  0  0  0  0  0  0
   21.4678   17.8176   18.6960 H   0  0  0  0  0  0  0  0  0  0  0  0
   21.3917   19.5708   18.9709 H   0  0  0  0  0  0  0  0  0  0  0  0
   19.9890   18.7139   18.2911 H   0  0  0  0  0  0  0  0  0  0  0  0
  1  2  1  0  0  0  0
  1  3  2  0  0  0  0
  1  4  1  0  0  0  0
  4  5  1  0  0  0  0
  4  6  1  0  0  0  0
  4  7  1  0  0  0  0
  7  8  1  0  0  0  0
  7  9  1  0  0  0  0
  7 10  1  0  0  0  0
 10 11  1  0  0  0  0
 10 12  1  0  0  0  0
 10 13  1  0  0  0  0
 13 14  1  0  0  0  0
 13 15  1  0  0  0  0
 13 16  1  0  0  0  0
 16 17  1  0  0  0  0
 16 18  1  0  0  0  0
 16 19  1  0  0  0  0
 19 20  1  0  0  0  0
 19 21  1  0  0  0  0
 19 22  1  0  0  0  0
M  END
> <VM2 Rank>
4

> <Conf_Id>
567

> <Probability>
7.32

> <Sum Probability>
54.98

> <Delta G>
0.880

> <G>
-16.118

> <E>
-35.792

> <-TS>
19.674

> <U+W>
-53.677

> <U>
7.026

> <W>
-60.703

> <W(PB)>
-63.007

> <W(SA)>
2.304

> <Valence>
7.638

> <Coulomb>
-1.488

> <VdW>
0.877

> <VdW6>
-7.165

> <VdW12>
8.042

> <Bond>
0.134

> <Angle>
2.513

> <Pdih>
4.990

> <Idih>
0.001

> <Tether>
0.000

$$$$
VeraChem MOL file


 22 21  0  0  0  0  0  0  0  0999 V2000     
   19.6003   19.0275   25.9802 C   0  0  0  0  0  0  0  0  0  0  0  0
   19.2276   20.0654   26.4906 O   0  5  0  0  0  0  0  0  0  0  0  0
   19.1931   17.9312   26.3099 O   0  0  0  0  0  0  0  0  0  0  0  0
   20.6207   19.1067   24.8502 C   0  0  0  0  0  0  0  0  0  0  0  0
   21.2459   18.2067   24.8919 H   0  0  0  0  0  0  0  0  0  0  0  0
   21.2751   19.9655   25.0421 H   0  0  0  0  0  0  0  0  0  0  0  0
   19.9633   19.2360   23.4540 C   0  0  0  0  0  0  0  0  0  0  0  0
   19.2989   18.3766   23.2941 H   0  0  0  0  0  0  0  0  0  0  0  0
   19.3339   20.1364   23.4315 H   0  0  0  0  0  0  0  0  0  0  0  0
   21.0200   19.3097   22.3275 C   0  0  0  0  0  0  0  0  0  0  0  0
   21.6152   18.3863   22.3164 H   0  0  0  0  0  0  0  0  0  0  0  0
   21.7195   20.1278   22.5473 H   0  0  0  0  0  0  0  0  0  0  0  0
   20.4107   19.5498   20.9258 C   0  0  0  0  0  0  0  0  0  0  0  0
   19.8186   20.4751   20.9354 H   0  0  0  0  0  0  0  0  0  0  0  0
   21.2308   19.7134   20.2134 H   0  0  0  0  0  0  0  0  0  0  0  0
   19.5374   18.3776   20.4241 C   0  0  0  0  0  0  0  0  0  0  0  0
   18.6667   18.2466   21.0799 H   0  0  0  0  0  0  0  0  0  0  0  0
   20.1131   17.4427   20.4644 H   0  0  0  0  0  0  0  0  0  0  0  0
   19.0470   18.6151   18.9816 C   0  0  0  0  0  0  0  0  0  0  0  0
   18.4444   19.5307   18.9177 H   0  0  0  0  0  0  0  0  0  0  0  0
   18.4262   17.7763   18.6411 H   0  0  0  0  0  0  0  0  0  0  0  0
   19.8936   18.7127   18.2894 H   0  0  0  0  0  0  0  0  0  0  0  0
  1  2  1  0  0  0  0
  1  3  2  0  0  0  0
  1  4  1  0  0  0  0
  4  5  1  0  0  0  0
  4  6  1  0  0  0  0
  4  7  1  0  0  0  0
  7  8  1  0  0  0  0
  7  9  1  0  0  0  0
  7 10  1  0  0  0  0
 10 11  1  0  0  0  0
 10 12  1  0  0  0  0
 10 13  1  0  0  0  0
 13 14  1  0  0  0  0
 13 15  1  0  0  0  0
 13 16  1  0  0  0  0
 16 17  1  0  0  0  0
 16 18  1  0  0  0  0
 16 19  1  0  0  0  0
 19 20  1  0  0  0  0
 19 21  1  0  0  0  0
 19 22  1  0  0  0  0
M  END
> <VM2 Rank>
5

> <Conf_Id>
523

> <Probability>
7.08

> <Sum Probability>
62.07

> <Delta G>
0.899

> <G>
-16.099

> <E>
-35.773

> <-TS>
19.674

> <U+W>
-53.658

> <U>
7.026

> <W>
-60.684

> <W(PB)>
-62.976

> <W(SA)>
2.292

> <Valence>
7.638

> <Coulomb>
-1.489

> <VdW>
0.877

> <VdW6>
-7.165

> <VdW12>
8.042

> <Bond>
0.134

> <Angle>
2.513

> <Pdih>
4.990

> <Idih>
0.001

> <Tether>
0.000

$$$$
VeraChem MOL file


 22 21  0  0  0  0  0  0  0  0999 V2000     
   19.7329   19.2233   26.0947 C   0  0  0  0  0  0  0  0  0  0  0  0
   20.1388   20.2915   26.5079 O   0  5  0  0  0  0  0  0  0  0  0  0
   19.7906   18.1897   26.7309 O   0  0  0  0  0  0  0  0  0  0  0  0
   19.1379   19.1730   24.6920 C   0  0  0  0  0  0  0  0  0  0  0  0
   18.6463   20.1334   24.4957 H   0  0  0  0  0  0  0  0  0  0  0  0
   18.3586   18.4015   24.6798 H   0  0  0  0  0  0  0  0  0  0  0  0
   20.1959   18.8810   23.5996 C   0  0  0  0  0  0  0  0  0  0  0  0
   20.9752   19.6551   23.6329 H   0  0  0  0  0  0  0  0  0  0  0  0
   20.6880   17.9231   23.8182 H   0  0  0  0  0  0  0  0  0  0  0  0
   19.5687   18.8351   22.1893 C   0  0  0  0  0  0  0  0  0  0  0  0
   19.0740   19.7935   21.9842 H   0  0  0  0  0  0  0  0  0  0  0  0
   18.7917   18.0591   22.1583 H   0  0  0  0  0  0  0  0  0  0  0  0
   20.6295   18.5473   21.1021 C   0  0  0  0  0  0  0  0  0  0  0  0
   21.3808   19.3488   21.0964 H   0  0  0  0  0  0  0  0  0  0  0  0
   21.1634   17.6223   21.3597 H   0  0  0  0  0  0  0  0  0  0  0  0
   20.0307   18.3899   19.6851 C   0  0  0  0  0  0  0  0  0  0  0  0
   19.2832   17.5845   19.6854 H   0  0  0  0  0  0  0  0  0  0  0  0
   20.8280   18.0729   18.9988 H   0  0  0  0  0  0  0  0  0  0  0  0
   19.3951   19.6882   19.1424 C   0  0  0  0  0  0  0  0  0  0  0  0
   20.1158   20.5161   19.1607 H   0  0  0  0  0  0  0  0  0  0  0  0
   18.5177   19.9819   19.7321 H   0  0  0  0  0  0  0  0  0  0  0  0
   19.0660   19.5496   18.1044 H   0  0  0  0  0  0  0  0  0  0  0  0
  1  2  1  0  0  0  0
  1  3  2  0  0  0  0
  1  4  1  0  0  0  0
  4  5  1  0  0  0  0
  4  6  1  0  0  0  0
  4  7  1  0  0  0  0
  7  8  1  0  0  0  0
  7  9  1  0  0  0  0
  7 10  1  0  0  0  0
 10 11  1  0  0  0  0
 10 12  1  0  0  0  0
 10 13  1  0  0  0  0
 13 14  1  0  0  0  0
 13 15  1  0  0  0  0
 13 16  1  0  0  0  0
 16 17  1  0  0  0  0
 16 18  1  0  0  0  0
 16 19  1  0  0  0  0
 19 20  1  0  0  0  0
 19 21  1  0  0  0  0
 19 22  1  0  0  0  0
M  END
> <VM2 Rank>
6

> <Conf_Id>
38

> <Probability>
6.37

> <Sum Probability>
68.44

> <Delta G>
0.962

> <G>
-16.036

> <E>
-35.714

> <-TS>
19.677

> <U+W>
-53.598

> <U>
6.751

> <W>
-60.350

> <W(PB)>
-62.659

> <W(SA)>
2.309

> <Valence>
7.602

> <Coulomb>
-1.744

> <VdW>
0.893

> <VdW6>
-7.110

> <VdW12>
8.004

> <Bond>
0.131

> <Angle>
2.489

> <Pdih>
4.981

> <Idih>
0.001

> <Tether>
0.000

$$$$
VeraChem MOL file


 22 21  0  0  0  0  0  0  0  0999 V2000     
   19.7434   19.0279   26.1022 C   0  0  0  0  0  0  0  0  0  0  0  0
   19.6871   20.1073   26.6574 O   0  5  0  0  0  0  0  0  0  0  0  0
   20.2602   18.0443   26.5940 O   0  0  0  0  0  0  0  0  0  0  0  0
   19.1522   18.9067   24.7022 C   0  0  0  0  0  0  0  0  0  0  0  0
   18.2946   19.5868   24.6344 H   0  0  0  0  0  0  0  0  0  0  0  0
   18.7676   17.8868   24.5819 H   0  0  0  0  0  0  0  0  0  0  0  0
   20.1773   19.2265   23.5863 C   0  0  0  0  0  0  0  0  0  0  0  0
   20.5625   20.2456   23.7291 H   0  0  0  0  0  0  0  0  0  0  0  0
   21.0352   18.5455   23.6755 H   0  0  0  0  0  0  0  0  0  0  0  0
   19.5545   19.0968   22.1793 C   0  0  0  0  0  0  0  0  0  0  0  0
   18.6987   19.7800   22.0923 H   0  0  0  0  0  0  0  0  0  0  0  0
   19.1667   18.0779   22.0500 H   0  0  0  0  0  0  0  0  0  0  0  0
   20.5827   19.4132   21.0689 C   0  0  0  0  0  0  0  0  0  0  0  0
   21.0129   20.4072   21.2529 H   0  0  0  0  0  0  0  0  0  0  0  0
   21.4159   18.6991   21.1214 H   0  0  0  0  0  0  0  0  0  0  0  0
   19.9763   19.3965   19.6465 C   0  0  0  0  0  0  0  0  0  0  0  0
   20.7377   19.7441   18.9347 H   0  0  0  0  0  0  0  0  0  0  0  0
   19.1465   20.1145   19.5884 H   0  0  0  0  0  0  0  0  0  0  0  0
   19.4863   17.9997   19.2072 C   0  0  0  0  0  0  0  0  0  0  0  0
   19.1486   18.0224   18.1630 H   0  0  0  0  0  0  0  0  0  0  0  0
   18.6433   17.6592   19.8212 H   0  0  0  0  0  0  0  0  0  0  0  0
   20.2919   17.2581   19.2857 H   0  0  0  0  0  0  0  0  0  0  0  0
  1  2  1  0  0  0  0
  1  3  2  0  0  0  0
  1  4  1  0  0  0  0
  4  5  1  0  0  0  0
  4  6  1  0  0  0  0
  4  7  1  0  0  0  0
  7  8  1  0  0  0  0
  7  9  1  0  0  0  0
  7 10  1  0  0  0  0
 10 11  1  0  0  0  0
 10 12  1  0  0  0  0
 10 13  1  0  0  0  0
 13 14  1  0  0  0  0
 13 15  1  0  0  0  0
 13 16  1  0  0  0  0
 16 17  1  0  0  0  0
 16 18  1  0  0  0  0
 16 19  1  0  0  0  0
 19 20  1  0  0  0  0
 19 21  1  0  0  0  0
 19 22  1  0  0  0  0
M  END
> <VM2 Rank>
7

> <Conf_Id>
539

> <Probability>
6.02

> <Sum Probability>
74.46

> <Delta G>
0.996

> <G>
-16.002

> <E>
-35.680

> <-TS>
19.677

> <U+W>
-53.565

> <U>
6.751

> <W>
-60.316

> <W(PB)>
-62.637

> <W(SA)>
2.321

> <Valence>
7.602

> <Coulomb>
-1.744

> <VdW>
0.893

> <VdW6>
-7.110

> <VdW12>
8.004

> <Bond>
0.131

> <Angle>
2.489

> <Pdih>
4.981

> <Idih>
0.001

> <Tether>
0.000

$$$$
VeraChem MOL file


 22 21  0  0  0  0  0  0  0  0999 V2000     
   19.9960   19.0181   25.8023 C   0  0  0  0  0  0  0  0  0  0  0  0
   20.5947   19.9818   26.2379 O   0  5  0  0  0  0  0  0  0  0  0  0
   20.3757   17.8720   25.9402 O   0  0  0  0  0  0  0  0  0  0  0  0
   18.6863   19.2617   25.0576 C   0  0  0  0  0  0  0  0  0  0  0  0
   18.1021   19.9780   25.6473 H   0  0  0  0  0  0  0  0  0  0  0  0
   18.1150   18.3257   25.0383 H   0  0  0  0  0  0  0  0  0  0  0  0
   18.8715   19.8058   23.6172 C   0  0  0  0  0  0  0  0  0  0  0  0
   17.8887   20.0805   23.2109 H   0  0  0  0  0  0  0  0  0  0  0  0
   19.4690   20.7275   23.6504 H   0  0  0  0  0  0  0  0  0  0  0  0
   19.5431   18.7803   22.6764 C   0  0  0  0  0  0  0  0  0  0  0  0
   18.9492   17.8562   22.6571 H   0  0  0  0  0  0  0  0  0  0  0  0
   20.5347   18.5134   23.0674 H   0  0  0  0  0  0  0  0  0  0  0  0
   19.6887   19.3308   21.2414 C   0  0  0  0  0  0  0  0  0  0  0  0
   18.6981   19.5958   20.8472 H   0  0  0  0  0  0  0  0  0  0  0  0
   20.2827   20.2549   21.2616 H   0  0  0  0  0  0  0  0  0  0  0  0
   20.3600   18.3076   20.3015 C   0  0  0  0  0  0  0  0  0  0  0  0
   19.7678   17.3824   20.2775 H   0  0  0  0  0  0  0  0  0  0  0  0
   21.3522   18.0416   20.6917 H   0  0  0  0  0  0  0  0  0  0  0  0
   20.5041   18.8610   18.8695 C   0  0  0  0  0  0  0  0  0  0  0  0
   19.5227   19.1061   18.4426 H   0  0  0  0  0  0  0  0  0  0  0  0
   20.9830   18.1210   18.2152 H   0  0  0  0  0  0  0  0  0  0  0  0
   21.1191   19.7704   18.8599 H   0  0  0  0  0  0  0  0  0  0  0  0
  1  2  1  0  0  0  0
  1  3  2  0  0  0  0
  1  4  1  0  0  0  0
  4  5  1  0  0  0  0
  4  6  1  0  0  0  0
  4  7  1  0  0  0  0
  7  8  1  0  0  0  0
  7  9  1  0  0  0  0
  7 10  1  0  0  0  0
 10 11  1  0  0  0  0
 10 12  1  0  0  0  0
 10 13  1  0  0  0  0
 13 14  1  0  0  0  0
 13 15  1  0  0  0  0
 13 16  1  0  0  0  0
 16 17  1  0  0  0  0
 16 18  1  0  0  0  0
 16 19  1  0  0  0  0
 19 20  1  0  0  0  0
 19 21  1  0  0  0  0
 19 22  1  0  0  0  0
M  END
> <VM2 Rank>
8

> <Conf_Id>
134

> <Probability>
2.84

> <Sum Probability>
77.31

> <Delta G>
1.444

> <G>
-15.555

> <E>
-35.435

> <-TS>
19.880

> <U+W>
-53.320

> <U>
7.937

> <W>
-61.257

> <W(PB)>
-63.561

> <W(SA)>
2.304

> <Valence>
7.358

> <Coulomb>
-0.021

> <VdW>
0.600

> <VdW6>
-7.363

> <VdW12>
7.964

> <Bond>
0.121

> <Angle>
2.425

> <Pdih>
4.811

> <Idih>
0.001

> <Tether>
0.000

$$$$
VeraChem MOL file


 22 21  0  0  0  0  0  0  0  0999 V2000     
   19.5407   19.1476   25.7849 C   0  0  0  0  0  0  0  0  0  0  0  0
   19.5092   20.2906   26.1966 O   0  5  0  0  0  0  0  0  0  0  0  0
   18.6065   18.3754   25.8728 O   0  0  0  0  0  0  0  0  0  0  0  0
   20.8315   18.6513   25.1394 C   0  0  0  0  0  0  0  0  0  0  0  0
   20.8249   17.5545   25.1417 H   0  0  0  0  0  0  0  0  0  0  0  0
   21.6617   18.9650   25.7831 H   0  0  0  0  0  0  0  0  0  0  0  0
   21.0621   19.1824   23.7008 C   0  0  0  0  0  0  0  0  0  0  0  0
   21.0381   20.2811   23.7102 H   0  0  0  0  0  0  0  0  0  0  0  0
   22.0683   18.8911   23.3704 H   0  0  0  0  0  0  0  0  0  0  0  0
   20.0200   18.6448   22.6946 C   0  0  0  0  0  0  0  0  0  0  0  0
   19.0115   18.9471   23.0092 H   0  0  0  0  0  0  0  0  0  0  0  0
   20.0387   17.5463   22.6987 H   0  0  0  0  0  0  0  0  0  0  0  0
   20.2873   19.1604   21.2642 C   0  0  0  0  0  0  0  0  0  0  0  0
   20.2684   20.2590   21.2609 H   0  0  0  0  0  0  0  0  0  0  0  0
   21.2941   18.8568   20.9462 H   0  0  0  0  0  0  0  0  0  0  0  0
   19.2464   18.6246   20.2589 C   0  0  0  0  0  0  0  0  0  0  0  0
   18.2380   18.9281   20.5728 H   0  0  0  0  0  0  0  0  0  0  0  0
   19.2634   17.5259   20.2584 H   0  0  0  0  0  0  0  0  0  0  0  0
   19.5163   19.1419   18.8318 C   0  0  0  0  0  0  0  0  0  0  0  0
   19.4740   20.2385   18.7969 H   0  0  0  0  0  0  0  0  0  0  0  0
   18.7673   18.7514   18.1306 H   0  0  0  0  0  0  0  0  0  0  0  0
   20.5072   18.8256   18.4802 H   0  0  0  0  0  0  0  0  0  0  0  0
  1  2  1  0  0  0  0
  1  3  2  0  0  0  0
  1  4  1  0  0  0  0
  4  5  1  0  0  0  0
  4  6  1  0  0  0  0
  4  7  1  0  0  0  0
  7  8  1  0  0  0  0
  7  9  1  0  0  0  0
  7 10  1  0  0  0  0
 10 11  1  0  0  0  0
 10 12  1  0  0  0  0
 10 13  1  0  0  0  0
 13 14  1  0  0  0  0
 13 15  1  0  0  0  0
 13 16  1  0  0  0  0
 16 17  1  0  0  0  0
 16 18  1  0  0  0  0
 16 19  1  0  0  0  0
 19 20  1  0  0  0  0
 19 21  1  0  0  0  0
 19 22  1  0  0  0  0
M  END
> <VM2 Rank>
9

> <Conf_Id>
135

> <Probability>
2.70

> <Sum Probability>
80.01

> <Delta G>
1.474

> <G>
-15.525

> <E>
-35.405

> <-TS>
19.880

> <U+W>
-53.290

> <U>
7.937

> <W>
-61.226

> <W(PB)>
-63.524

> <W(SA)>
2.297

> <Valence>
7.358

> <Coulomb>
-0.021

> <VdW>
0.601

> <VdW6>
-7.363

> <VdW12>
7.964

> <Bond>
0.121

> <Angle>
2.425

> <Pdih>
4.811

> <Idih>
0.000

> <Tether>
0.000

$$$$
VeraChem MOL file


 22 21  0  0  0  0  0  0  0  0999 V2000     
   19.5828   19.1074   25.9232 C   0  0  0  0  0  0  0  0  0  0  0  0
   19.6063   20.2421   26.3574 O   0  5  0  0  0  0  0  0  0  0  0  0
   19.7025   18.1183   26.6188 O   0  0  0  0  0  0  0  0  0  0  0  0
   19.4169   18.9147   24.4200 C   0  0  0  0  0  0  0  0  0  0  0  0
   18.7808   19.7256   24.0479 H   0  0  0  0  0  0  0  0  0  0  0  0
   18.8765   17.9749   24.2550 H   0  0  0  0  0  0  0  0  0  0  0  0
   20.7712   18.8924   23.6647 C   0  0  0  0  0  0  0  0  0  0  0  0
   21.2839   19.8544   23.8024 H   0  0  0  0  0  0  0  0  0  0  0  0
   21.4171   18.1289   24.1201 H   0  0  0  0  0  0  0  0  0  0  0  0
   20.6294   18.5863   22.1548 C   0  0  0  0  0  0  0  0  0  0  0  0
   20.1348   17.6143   22.0287 H   0  0  0  0  0  0  0  0  0  0  0  0
   21.6344   18.4840   21.7231 H   0  0  0  0  0  0  0  0  0  0  0  0
   19.8557   19.6797   21.3784 C   0  0  0  0  0  0  0  0  0  0  0  0
   18.8108   19.7120   21.7134 H   0  0  0  0  0  0  0  0  0  0  0  0
   20.2903   20.6609   21.6129 H   0  0  0  0  0  0  0  0  0  0  0  0
   19.8896   19.4802   19.8453 C   0  0  0  0  0  0  0  0  0  0  0  0
   20.9312   19.4634   19.4959 H   0  0  0  0  0  0  0  0  0  0  0  0
   19.4157   20.3479   19.3660 H   0  0  0  0  0  0  0  0  0  0  0  0
   19.1654   18.1979   19.3814 C   0  0  0  0  0  0  0  0  0  0  0  0
   19.6730   17.2968   19.7478 H   0  0  0  0  0  0  0  0  0  0  0  0
   19.1434   18.1446   18.2852 H   0  0  0  0  0  0  0  0  0  0  0  0
   18.1286   18.1801   19.7417 H   0  0  0  0  0  0  0  0  0  0  0  0
  1  2  1  0  0  0  0
  1  3  2  0  0  0  0
  1  4  1  0  0  0  0
  4  5  1  0  0  0  0
  4  6  1  0  0  0  0
  4  7  1  0  0  0  0
  7  8  1  0  0  0  0
  7  9  1  0  0  0  0
  7 10  1  0  0  0  0
 10 11  1  0  0  0  0
 10 12  1  0  0  0  0
 10 13  1  0  0  0  0
 13 14  1  0  0  0  0
 13 15  1  0  0  0  0
 13 16  1  0  0  0  0
 16 17  1  0  0  0  0
 16 18  1  0  0  0  0
 16 19  1  0  0  0  0
 19 20  1  0  0  0  0
 19 21  1  0  0  0  0
 19 22  1  0  0  0  0
M  END
> <VM2 Rank>
10

> <Conf_Id>
52

> <Probability>
1.62

> <Sum Probability>
81.63

> <Delta G>
1.779

> <G>
-15.219

> <E>
-35.030

> <-TS>
19.810

> <U+W>
-52.914

> <U>
7.600

> <W>
-60.514

> <W(PB)>
-62.798

> <W(SA)>
2.284

> <Valence>
8.094

> <Coulomb>
-1.473

> <VdW>
0.979

> <VdW6>
-7.827

> <VdW12>
8.806

> <Bond>
0.173

> <Angle>
2.687

> <Pdih>
5.233

> <Idih>
0.001

> <Tether>
0.000

$$$$
VeraChem MOL file


 22 21  0  0  0  0  0  0  0  0999 V2000     
   19.7290   19.2106   25.9882 C   0  0  0  0  0  0  0  0  0  0  0  0
   20.0551   20.3279   26.3374 O   0  5  0  0  0  0  0  0  0  0  0  0
   19.7207   18.2492   26.7314 O   0  0  0  0  0  0  0  0  0  0  0  0
   19.3301   18.9985   24.5322 C   0  0  0  0  0  0  0  0  0  0  0  0
   18.8411   19.9153   24.1846 H   0  0  0  0  0  0  0  0  0  0  0  0
   18.5823   18.1972   24.4978 H   0  0  0  0  0  0  0  0  0  0  0  0
   20.5372   18.6431   23.6255 C   0  0  0  0  0  0  0  0  0  0  0  0
   21.2567   19.4735   23.6290 H   0  0  0  0  0  0  0  0  0  0  0  0
   21.0595   17.7791   24.0593 H   0  0  0  0  0  0  0  0  0  0  0  0
   20.1407   18.3005   22.1694 C   0  0  0  0  0  0  0  0  0  0  0  0
   19.4153   17.4756   22.1700 H   0  0  0  0  0  0  0  0  0  0  0  0
   21.0347   17.9287   21.6529 H   0  0  0  0  0  0  0  0  0  0  0  0
   19.5606   19.5062   21.3898 C   0  0  0  0  0  0  0  0  0  0  0  0
   18.6646   19.8770   21.9035 H   0  0  0  0  0  0  0  0  0  0  0  0
   20.2852   20.3318   21.3911 H   0  0  0  0  0  0  0  0  0  0  0  0
   19.1688   19.1645   19.9332 C   0  0  0  0  0  0  0  0  0  0  0  0
   18.6443   20.0268   19.4990 H   0  0  0  0  0  0  0  0  0  0  0  0
   18.4528   18.3311   19.9270 H   0  0  0  0  0  0  0  0  0  0  0  0
   20.3778   18.8186   19.0369 C   0  0  0  0  0  0  0  0  0  0  0  0
   21.1237   19.6239   19.0551 H   0  0  0  0  0  0  0  0  0  0  0  0
   20.0564   18.6796   17.9966 H   0  0  0  0  0  0  0  0  0  0  0  0
   20.8648   17.8901   19.3597 H   0  0  0  0  0  0  0  0  0  0  0  0
  1  2  1  0  0  0  0
  1  3  2  0  0  0  0
  1  4  1  0  0  0  0
  4  5  1  0  0  0  0
  4  6  1  0  0  0  0
  4  7  1  0  0  0  0
  7  8  1  0  0  0  0
  7  9  1  0  0  0  0
  7 10  1  0  0  0  0
 10 11  1  0  0  0  0
 10 12  1  0  0  0  0
 10 13  1  0  0  0  0
 13 14  1  0  0  0  0
 13 15  1  0  0  0  0
 13 16  1  0  0  0  0
 16 17  1  0  0  0  0
 16 18  1  0  0  0  0
 16 19  1  0  0  0  0
 19 20  1  0  0  0  0
 19 21  1  0  0  0  0
 19 22  1  0  0  0  0
M  END
> <VM2 Rank>
11

> <Conf_Id>
278

> <Probability>
1.54

> <Sum Probability>
83.17

> <Delta G>
1.807

> <G>
-15.191

> <E>
-34.926

> <-TS>
19.735

> <U+W>
-52.811

> <U>
7.689

> <W>
-60.500

> <W(PB)>
-62.768

> <W(SA)>
2.268

> <Valence>
8.197

> <Coulomb>
-1.561

> <VdW>
1.053

> <VdW6>
-7.737

> <VdW12>
8.790

> <Bond>
0.181

> <Angle>
2.780

> <Pdih>
5.235

> <Idih>
0.001

> <Tether>
0.000

$$$$
VeraChem MOL file


 22 21  0  0  0  0  0  0  0  0999 V2000     
   19.8254   19.1168   26.2070 C   0  0  0  0  0  0  0  0  0  0  0  0
   20.5310   20.1067   26.2306 O   0  5  0  0  0  0  0  0  0  0  0  0
   19.4086   18.5752   27.2114 O   0  0  0  0  0  0  0  0  0  0  0  0
   19.4267   18.5007   24.8650 C   0  0  0  0  0  0  0  0  0  0  0  0
   18.3312   18.4811   24.8268 H   0  0  0  0  0  0  0  0  0  0  0  0
   19.7663   17.4584   24.8699 H   0  0  0  0  0  0  0  0  0  0  0  0
   19.9822   19.2273   23.6112 C   0  0  0  0  0  0  0  0  0  0  0  0
   19.6433   20.2726   23.6157 H   0  0  0  0  0  0  0  0  0  0  0  0
   21.0798   19.2488   23.6588 H   0  0  0  0  0  0  0  0  0  0  0  0
   19.5322   18.5410   22.3032 C   0  0  0  0  0  0  0  0  0  0  0  0
   18.4346   18.5207   22.2579 H   0  0  0  0  0  0  0  0  0  0  0  0
   19.8719   17.4961   22.3011 H   0  0  0  0  0  0  0  0  0  0  0  0
   20.0859   19.2652   21.0574 C   0  0  0  0  0  0  0  0  0  0  0  0
   19.7464   20.3102   21.0591 H   0  0  0  0  0  0  0  0  0  0  0  0
   21.1835   19.2857   21.1022 H   0  0  0  0  0  0  0  0  0  0  0  0
   19.6365   18.5799   19.7499 C   0  0  0  0  0  0  0  0  0  0  0  0
   18.5390   18.5594   19.7006 H   0  0  0  0  0  0  0  0  0  0  0  0
   19.9760   17.5348   19.7437 H   0  0  0  0  0  0  0  0  0  0  0  0
   20.1916   19.3061   18.5082 C   0  0  0  0  0  0  0  0  0  0  0  0
   19.8417   20.3461   18.4723 H   0  0  0  0  0  0  0  0  0  0  0  0
   19.8625   18.8059   17.5881 H   0  0  0  0  0  0  0  0  0  0  0  0
   21.2895   19.3138   18.5158 H   0  0  0  0  0  0  0  0  0  0  0  0
  1  2  1  0  0  0  0
  1  3  2  0  0  0  0
  1  4  1  0  0  0  0
  4  5  1  0  0  0  0
  4  6  1  0  0  0  0
  4  7  1  0  0  0  0
  7  8  1  0  0  0  0
  7  9  1  0  0  0  0
  7 10  1  0  0  0  0
 10 11  1  0  0  0  0
 10 12  1  0  0  0  0
 10 13  1  0  0  0  0
 13 14  1  0  0  0  0
 13 15  1  0  0  0  0
 13 16  1  0  0  0  0
 16 17  1  0  0  0  0
 16 18  1  0  0  0  0
 16 19  1  0  0  0  0
 19 20  1  0  0  0  0
 19 21  1  0  0  0  0
 19 22  1  0  0  0  0
M  END
> <VM2 Rank>
12

> <Conf_Id>
0

> <Probability>
1.54

> <Sum Probability>
84.72

> <Delta G>
1.808

> <G>
-15.190

> <E>
-35.274

> <-TS>
20.084

> <U+W>
-53.159

> <U>
6.763

> <W>
-59.922

> <W(PB)>
-62.256

> <W(SA)>
2.334

> <Valence>
7.600

> <Coulomb>
-2.139

> <VdW>
1.302

> <VdW6>
-6.786

> <VdW12>
8.088

> <Bond>
0.134

> <Angle>
2.720

> <Pdih>
4.746

> <Idih>
0.000

> <Tether>
0.000

$$$$
VeraChem MOL file


 22 21  0  0  0  0  0  0  0  0999 V2000     
   19.5825   19.1138   25.9229 C   0  0  0  0  0  0  0  0  0  0  0  0
   19.5925   20.1601   26.5406 O   0  5  0  0  0  0  0  0  0  0  0  0
   19.7256   18.0246   26.4423 O   0  0  0  0  0  0  0  0  0  0  0  0
   19.4031   19.1725   24.4101 C   0  0  0  0  0  0  0  0  0  0  0  0
   18.7661   20.0338   24.1761 H   0  0  0  0  0  0  0  0  0  0  0  0
   18.8587   18.2722   24.1035 H   0  0  0  0  0  0  0  0  0  0  0  0
   20.7504   19.2814   23.6498 C   0  0  0  0  0  0  0  0  0  0  0  0
   21.3091   20.1421   24.0428 H   0  0  0  0  0  0  0  0  0  0  0  0
   21.3623   18.3930   23.8585 H   0  0  0  0  0  0  0  0  0  0  0  0
   20.5829   19.4544   22.1215 C   0  0  0  0  0  0  0  0  0  0  0  0
   21.5730   19.6301   21.6791 H   0  0  0  0  0  0  0  0  0  0  0  0
   19.9878   20.3555   21.9235 H   0  0  0  0  0  0  0  0  0  0  0  0
   19.9337   18.2285   21.4341 C   0  0  0  0  0  0  0  0  0  0  0  0
   20.4696   17.3201   21.7411 H   0  0  0  0  0  0  0  0  0  0  0  0
   18.8968   18.1104   21.7749 H   0  0  0  0  0  0  0  0  0  0  0  0
   19.9522   18.3127   19.8901 C   0  0  0  0  0  0  0  0  0  0  0  0
   19.5756   17.3653   19.4805 H   0  0  0  0  0  0  0  0  0  0  0  0
   20.9874   18.4140   19.5361 H   0  0  0  0  0  0  0  0  0  0  0  0
   19.0971   19.4711   19.3326 C   0  0  0  0  0  0  0  0  0  0  0  0
   18.0629   19.4056   19.6950 H   0  0  0  0  0  0  0  0  0  0  0  0
   19.0737   19.4378   18.2357 H   0  0  0  0  0  0  0  0  0  0  0  0
   19.5041   20.4466   19.6269 H   0  0  0  0  0  0  0  0  0  0  0  0
  1  2  1  0  0  0  0
  1  3  2  0  0  0  0
  1  4  1  0  0  0  0
  4  5  1  0  0  0  0
  4  6  1  0  0  0  0
  4  7  1  0  0  0  0
  7  8  1  0  0  0  0
  7  9  1  0  0  0  0
  7 10  1  0  0  0  0
 10 11  1  0  0  0  0
 10 12  1  0  0  0  0
 10 13  1  0  0  0  0
 13 14  1  0  0  0  0
 13 15  1  0  0  0  0
 13 16  1  0  0  0  0
 16 17  1  0  0  0  0
 16 18  1  0  0  0  0
 16 19  1  0  0  0  0
 19 20  1  0  0  0  0
 19 21  1  0  0  0  0
 19 22  1  0  0  0  0
M  END
> <VM2 Rank>
13

> <Conf_Id>
168

> <Probability>
1.53

> <Sum Probability>
86.25

> <Delta G>
1.811

> <G>
-15.188

> <E>
-34.998

> <-TS>
19.810

> <U+W>
-52.882

> <U>
7.600

> <W>
-60.482

> <W(PB)>
-62.768

> <W(SA)>
2.286

> <Valence>
8.094

> <Coulomb>
-1.473

> <VdW>
0.979

> <VdW6>
-7.827

> <VdW12>
8.806

> <Bond>
0.173

> <Angle>
2.687

> <Pdih>
5.233

> <Idih>
0.001

> <Tether>
0.000

$$$$
VeraChem MOL file


 22 21  0  0  0  0  0  0  0  0999 V2000     
   19.7386   19.0320   25.9951 C   0  0  0  0  0  0  0  0  0  0  0  0
   19.6239   20.0408   26.6627 O   0  5  0  0  0  0  0  0  0  0  0  0
   20.1815   17.9862   26.4271 O   0  0  0  0  0  0  0  0  0  0  0  0
   19.3252   19.0882   24.5287 C   0  0  0  0  0  0  0  0  0  0  0  0
   18.4959   19.7996   24.4363 H   0  0  0  0  0  0  0  0  0  0  0  0
   18.9390   18.1003   24.2542 H   0  0  0  0  0  0  0  0  0  0  0  0
   20.4910   19.5009   23.5926 C   0  0  0  0  0  0  0  0  0  0  0  0
   20.9157   20.4465   23.9570 H   0  0  0  0  0  0  0  0  0  0  0  0
   21.2955   18.7551   23.6566 H   0  0  0  0  0  0  0  0  0  0  0  0
   20.0660   19.6867   22.1163 C   0  0  0  0  0  0  0  0  0  0  0  0
   20.9171   20.1117   21.5691 H   0  0  0  0  0  0  0  0  0  0  0  0
   19.2564   20.4267   22.0568 H   0  0  0  0  0  0  0  0  0  0  0  0
   19.6217   18.3697   21.4335 C   0  0  0  0  0  0  0  0  0  0  0  0
   20.4307   17.6291   21.4949 H   0  0  0  0  0  0  0  0  0  0  0  0
   18.7686   17.9454   21.9776 H   0  0  0  0  0  0  0  0  0  0  0  0
   19.2016   18.5552   19.9566 C   0  0  0  0  0  0  0  0  0  0  0  0
   18.4004   19.3041   19.8896 H   0  0  0  0  0  0  0  0  0  0  0  0
   18.7745   17.6109   19.5917 H   0  0  0  0  0  0  0  0  0  0  0  0
   20.3703   18.9592   19.0315 C   0  0  0  0  0  0  0  0  0  0  0  0
   20.7536   19.9565   19.2804 H   0  0  0  0  0  0  0  0  0  0  0  0
   20.0401   18.9830   17.9849 H   0  0  0  0  0  0  0  0  0  0  0  0
   21.1981   18.2423   19.1082 H   0  0  0  0  0  0  0  0  0  0  0  0
  1  2  1  0  0  0  0
  1  3  2  0  0  0  0
  1  4  1  0  0  0  0
  4  5  1  0  0  0  0
  4  6  1  0  0  0  0
  4  7  1  0  0  0  0
  7  8  1  0  0  0  0
  7  9  1  0  0  0  0
  7 10  1  0  0  0  0
 10 11  1  0  0  0  0
 10 12  1  0  0  0  0
 10 13  1  0  0  0  0
 13 14  1  0  0  0  0
 13 15  1  0  0  0  0
 13 16  1  0  0  0  0
 16 17  1  0  0  0  0
 16 18  1  0  0  0  0
 16 19  1  0  0  0  0
 19 20  1  0  0  0  0
 19 21  1  0  0  0  0
 19 22  1  0  0  0  0
M  END
> <VM2 Rank>
14

> <Conf_Id>
469

> <Probability>
1.47

> <Sum Probability>
87.72

> <Delta G>
1.837

> <G>
-15.162

> <E>
-34.896

> <-TS>
19.735

> <U+W>
-52.781

> <U>
7.689

> <W>
-60.471

> <W(PB)>
-62.780

> <W(SA)>
2.309

> <Valence>
8.197

> <Coulomb>
-1.561

> <VdW>
1.053

> <VdW6>
-7.737

> <VdW12>
8.791

> <Bond>
0.181

> <Angle>
2.780

> <Pdih>
5.235

> <Idih>
0.001

> <Tether>
0.000

$$$$
VeraChem MOL file


 22 21  0  0  0  0  0  0  0  0999 V2000     
   19.9220   18.7600   25.6883 C   0  0  0  0  0  0  0  0  0  0  0  0
   19.5008   19.3873   26.6400 O   0  5  0  0  0  0  0  0  0  0  0  0
   20.8464   17.9742   25.7564 O   0  0  0  0  0  0  0  0  0  0  0  0
   19.2688   18.9882   24.3299 C   0  0  0  0  0  0  0  0  0  0  0  0
   18.2113   19.2262   24.4953 H   0  0  0  0  0  0  0  0  0  0  0  0
   19.3079   18.0420   23.7782 H   0  0  0  0  0  0  0  0  0  0  0  0
   19.9514   20.1196   23.5184 C   0  0  0  0  0  0  0  0  0  0  0  0
   19.9771   21.0291   24.1342 H   0  0  0  0  0  0  0  0  0  0  0  0
   20.9996   19.8536   23.3276 H   0  0  0  0  0  0  0  0  0  0  0  0
   19.2319   20.4470   22.1857 C   0  0  0  0  0  0  0  0  0  0  0  0
   19.7607   21.2747   21.6936 H   0  0  0  0  0  0  0  0  0  0  0  0
   18.2239   20.8222   22.4092 H   0  0  0  0  0  0  0  0  0  0  0  0
   19.1125   19.2661   21.1897 C   0  0  0  0  0  0  0  0  0  0  0  0
   18.4907   18.4713   21.6220 H   0  0  0  0  0  0  0  0  0  0  0  0
   18.5764   19.6194   20.2983 H   0  0  0  0  0  0  0  0  0  0  0  0
   20.4766   18.6839   20.7562 C   0  0  0  0  0  0  0  0  0  0  0  0
   20.9952   18.2536   21.6233 H   0  0  0  0  0  0  0  0  0  0  0  0
   21.1156   19.4879   20.3659 H   0  0  0  0  0  0  0  0  0  0  0  0
   20.3096   17.5927   19.6796 C   0  0  0  0  0  0  0  0  0  0  0  0
   19.8263   17.9976   18.7808 H   0  0  0  0  0  0  0  0  0  0  0  0
   19.6966   16.7626   20.0544 H   0  0  0  0  0  0  0  0  0  0  0  0
   21.2863   17.1871   19.3854 H   0  0  0  0  0  0  0  0  0  0  0  0
  1  2  1  0  0  0  0
  1  3  2  0  0  0  0
  1  4  1  0  0  0  0
  4  5  1  0  0  0  0
  4  6  1  0  0  0  0
  4  7  1  0  0  0  0
  7  8  1  0  0  0  0
  7  9  1  0  0  0  0
  7 10  1  0  0  0  0
 10 11  1  0  0  0  0
 10 12  1  0  0  0  0
 10 13  1  0  0  0  0
 13 14  1  0  0  0  0
 13 15  1  0  0  0  0
 13 16  1  0  0  0  0
 16 17  1  0  0  0  0
 16 18  1  0  0  0  0
 16 19  1  0  0  0  0
 19 20  1  0  0  0  0
 19 21  1  0  0  0  0
 19 22  1  0  0  0  0
M  END
> <VM2 Rank>
15

> <Conf_Id>
552

> <Probability>
1.30

> <Sum Probability>
89.02

> <Delta G>
1.910

> <G>
-15.088

> <E>
-35.093

> <-TS>
20.004

> <U+W>
-52.977

> <U>
8.061

> <W>
-61.039

> <W(PB)>
-63.309

> <W(SA)>
2.270

> <Valence>
8.062

> <Coulomb>
-0.784

> <VdW>
0.783

> <VdW6>
-8.229

> <VdW12>
9.011

> <Bond>
0.182

> <Angle>
2.910

> <Pdih>
4.969

> <Idih>
0.001

> <Tether>
0.000

$$$$
VeraChem MOL file


 22 21  0  0  0  0  0  0  0  0999 V2000     
   20.1859   18.9733   25.6794 C   0  0  0  0  0  0  0  0  0  0  0  0
   19.6996   19.5479   26.6333 O   0  5  0  0  0  0  0  0  0  0  0  0
   20.7637   17.9073   25.7591 O   0  0  0  0  0  0  0  0  0  0  0  0
   20.0441   19.6150   24.3039 C   0  0  0  0  0  0  0  0  0  0  0  0
   20.9381   19.3599   23.7235 H   0  0  0  0  0  0  0  0  0  0  0  0
   20.0391   20.7037   24.4340 H   0  0  0  0  0  0  0  0  0  0  0  0
   18.7632   19.1592   23.5582 C   0  0  0  0  0  0  0  0  0  0  0  0
   18.7965   18.0729   23.4015 H   0  0  0  0  0  0  0  0  0  0  0  0
   17.8941   19.3455   24.2041 H   0  0  0  0  0  0  0  0  0  0  0  0
   18.5394   19.8873   22.2089 C   0  0  0  0  0  0  0  0  0  0  0  0
   18.3924   20.9584   22.4035 H   0  0  0  0  0  0  0  0  0  0  0  0
   17.6004   19.5285   21.7660 H   0  0  0  0  0  0  0  0  0  0  0  0
   19.6779   19.7232   21.1707 C   0  0  0  0  0  0  0  0  0  0  0  0
   19.4085   20.2919   20.2703 H   0  0  0  0  0  0  0  0  0  0  0  0
   20.6019   20.1778   21.5511 H   0  0  0  0  0  0  0  0  0  0  0  0
   19.9443   18.2537   20.7741 C   0  0  0  0  0  0  0  0  0  0  0  0
   19.0095   17.7855   20.4366 H   0  0  0  0  0  0  0  0  0  0  0  0
   20.2917   17.6849   21.6469 H   0  0  0  0  0  0  0  0  0  0  0  0
   21.0017   18.1521   19.6564 C   0  0  0  0  0  0  0  0  0  0  0  0
   21.1822   17.1029   19.3890 H   0  0  0  0  0  0  0  0  0  0  0  0
   21.9561   18.5889   19.9785 H   0  0  0  0  0  0  0  0  0  0  0  0
   20.6705   18.6800   18.7525 H   0  0  0  0  0  0  0  0  0  0  0  0
  1  2  1  0  0  0  0
  1  3  2  0  0  0  0
  1  4  1  0  0  0  0
  4  5  1  0  0  0  0
  4  6  1  0  0  0  0
  4  7  1  0  0  0  0
  7  8  1  0  0  0  0
  7  9  1  0  0  0  0
  7 10  1  0  0  0  0
 10 11  1  0  0  0  0
 10 12  1  0  0  0  0
 10 13  1  0  0  0  0
 13 14  1  0  0  0  0
 13 15  1  0  0  0  0
 13 16  1  0  0  0  0
 16 17  1  0  0  0  0
 16 18  1  0  0  0  0
 16 19  1  0  0  0  0
 19 20  1  0  0  0  0
 19 21  1  0  0  0  0
 19 22  1  0  0  0  0
M  END
> <VM2 Rank>
16

> <Conf_Id>
528

> <Probability>
1.16

> <Sum Probability>
90.18

> <Delta G>
1.976

> <G>
-15.023

> <E>
-35.027

> <-TS>
20.004

> <U+W>
-52.912

> <U>
8.061

> <W>
-60.973

> <W(PB)>
-63.234

> <W(SA)>
2.261

> <Valence>
8.062

> <Coulomb>
-0.784

> <VdW>
0.783

> <VdW6>
-8.228

> <VdW12>
9.011

> <Bond>
0.183

> <Angle>
2.910

> <Pdih>
4.970

> <Idih>
0.001

> <Tether>
0.000

$$$$
VeraChem MOL file


 22 21  0  0  0  0  0  0  0  0999 V2000     
   19.9999   18.9457   25.8522 C   0  0  0  0  0  0  0  0  0  0  0  0
   20.0429   19.9724   26.5007 O   0  5  0  0  0  0  0  0  0  0  0  0
   20.6760   17.9662   26.0973 O   0  0  0  0  0  0  0  0  0  0  0  0
   19.0587   18.8898   24.6542 C   0  0  0  0  0  0  0  0  0  0  0  0
   18.1791   19.5033   24.8833 H   0  0  0  0  0  0  0  0  0  0  0  0
   18.7123   17.8555   24.5407 H   0  0  0  0  0  0  0  0  0  0  0  0
   19.7239   19.3765   23.3432 C   0  0  0  0  0  0  0  0  0  0  0  0
   20.0733   20.4098   23.4747 H   0  0  0  0  0  0  0  0  0  0  0  0
   20.6111   18.7603   23.1455 H   0  0  0  0  0  0  0  0  0  0  0  0
   18.7503   19.3033   22.1443 C   0  0  0  0  0  0  0  0  0  0  0  0
   17.8370   19.8612   22.3918 H   0  0  0  0  0  0  0  0  0  0  0  0
   18.4372   18.2634   21.9832 H   0  0  0  0  0  0  0  0  0  0  0  0
   19.3378   19.8874   20.8350 C   0  0  0  0  0  0  0  0  0  0  0  0
   18.5671   19.8441   20.0534 H   0  0  0  0  0  0  0  0  0  0  0  0
   19.5549   20.9534   20.9873 H   0  0  0  0  0  0  0  0  0  0  0  0
   20.6175   19.1881   20.3135 C   0  0  0  0  0  0  0  0  0  0  0  0
   21.4364   19.3089   21.0349 H   0  0  0  0  0  0  0  0  0  0  0  0
   20.9445   19.6968   19.3962 H   0  0  0  0  0  0  0  0  0  0  0  0
   20.4130   17.6895   20.0037 C   0  0  0  0  0  0  0  0  0  0  0  0
   19.5820   17.5431   19.3016 H   0  0  0  0  0  0  0  0  0  0  0  0
   20.1981   17.1197   20.9166 H   0  0  0  0  0  0  0  0  0  0  0  0
   21.3178   17.2637   19.5512 H   0  0  0  0  0  0  0  0  0  0  0  0
  1  2  1  0  0  0  0
  1  3  2  0  0  0  0
  1  4  1  0  0  0  0
  4  5  1  0  0  0  0
  4  6  1  0  0  0  0
  4  7  1  0  0  0  0
  7  8  1  0  0  0  0
  7  9  1  0  0  0  0
  7 10  1  0  0  0  0
 10 11  1  0  0  0  0
 10 12  1  0  0  0  0
 10 13  1  0  0  0  0
 13 14  1  0  0  0  0
 13 15  1  0  0  0  0
 13 16  1  0  0  0  0
 16 17  1  0  0  0  0
 16 18  1  0  0  0  0
 16 19  1  0  0  0  0
 19 20  1  0  0  0  0
 19 21  1  0  0  0  0
 19 22  1  0  0  0  0
M  END
> <VM2 Rank>
17

> <Conf_Id>
345

> <Probability>
1.16

> <Sum Probability>
91.35

> <Delta G>
1.977

> <G>
-15.022

> <E>
-34.996

> <-TS>
19.974

> <U+W>
-52.880

> <U>
8.104

> <W>
-60.984

> <W(PB)>
-63.232

> <W(SA)>
2.248

> <Valence>
8.053

> <Coulomb>
-0.790

> <VdW>
0.841

> <VdW6>
-8.065

> <VdW12>
8.906

> <Bond>
0.172

> <Angle>
2.891

> <Pdih>
4.989

> <Idih>
0.000

> <Tether>
0.000

$$$$
VeraChem MOL file


 22 21  0  0  0  0  0  0  0  0999 V2000     
   19.9800   19.3133   25.8381 C   0  0  0  0  0  0  0  0  0  0  0  0
   20.5454   20.3758   26.0053 O   0  5  0  0  0  0  0  0  0  0  0  0
   20.1311   18.3495   26.5625 O   0  0  0  0  0  0  0  0  0  0  0  0
   19.0432   19.1761   24.6432 C   0  0  0  0  0  0  0  0  0  0  0  0
   18.5881   20.1555   24.4525 H   0  0  0  0  0  0  0  0  0  0  0  0
   18.2337   18.4909   24.9222 H   0  0  0  0  0  0  0  0  0  0  0  0
   19.7623   18.6651   23.3705 C   0  0  0  0  0  0  0  0  0  0  0  0
   20.5789   19.3561   23.1227 H   0  0  0  0  0  0  0  0  0  0  0  0
   20.2202   17.6883   23.5791 H   0  0  0  0  0  0  0  0  0  0  0  0
   18.7914   18.5414   22.1735 C   0  0  0  0  0  0  0  0  0  0  0  0
   18.3690   19.5263   21.9348 H   0  0  0  0  0  0  0  0  0  0  0  0
   17.9423   17.9091   22.4667 H   0  0  0  0  0  0  0  0  0  0  0  0
   19.4436   17.9254   20.9103 C   0  0  0  0  0  0  0  0  0  0  0  0
   19.7734   16.9037   21.1428 H   0  0  0  0  0  0  0  0  0  0  0  0
   18.6760   17.8258   20.1309 H   0  0  0  0  0  0  0  0  0  0  0  0
   20.6430   18.7162   20.3316 C   0  0  0  0  0  0  0  0  0  0  0  0
   21.0265   18.1769   19.4546 H   0  0  0  0  0  0  0  0  0  0  0  0
   21.4671   18.7397   21.0568 H   0  0  0  0  0  0  0  0  0  0  0  0
   20.2800   20.1561   19.9090 C   0  0  0  0  0  0  0  0  0  0  0  0
   21.1357   20.6409   19.4217 H   0  0  0  0  0  0  0  0  0  0  0  0
   20.0012   20.7676   20.7764 H   0  0  0  0  0  0  0  0  0  0  0  0
   19.4411   20.1582   19.2010 H   0  0  0  0  0  0  0  0  0  0  0  0
  1  2  1  0  0  0  0
  1  3  2  0  0  0  0
  1  4  1  0  0  0  0
  4  5  1  0  0  0  0
  4  6  1  0  0  0  0
  4  7  1  0  0  0  0
  7  8  1  0  0  0  0
  7  9  1  0  0  0  0
  7 10  1  0  0  0  0
 10 11  1  0  0  0  0
 10 12  1  0  0  0  0
 10 13  1  0  0  0  0
 13 14  1  0  0  0  0
 13 15  1  0  0  0  0
 13 16  1  0  0  0  0
 16 17  1  0  0  0  0
 16 18  1  0  0  0  0
 16 19  1  0  0  0  0
 19 20  1  0  0  0  0
 19 21  1  0  0  0  0
 19 22  1  0  0  0  0
M  END
> <VM2 Rank>
18

> <Conf_Id>
379

> <Probability>
1.11

> <Sum Probability>
92.46

> <Delta G>
2.004

> <G>
-14.995

> <E>
-34.969

> <-TS>
19.974

> <U+W>
-52.854

> <U>
8.103

> <W>
-60.957

> <W(PB)>
-63.216

> <W(SA)>
2.258

> <Valence>
8.053

> <Coulomb>
-0.790

> <VdW>
0.841

> <VdW6>
-8.065

> <VdW12>
8.906

> <Bond>
0.172

> <Angle>
2.892

> <Pdih>
4.988

> <Idih>
0.000

> <Tether>
0.000

$$$$
VeraChem MOL file


 22 21  0  0  0  0  0  0  0  0999 V2000     
   19.5977   19.2735   25.6791 C   0  0  0  0  0  0  0  0  0  0  0  0
   19.4203   20.4670   25.8237 O   0  5  0  0  0  0  0  0  0  0  0  0
   18.8095   18.4267   26.0512 O   0  0  0  0  0  0  0  0  0  0  0  0
   20.8918   18.8145   25.0130 C   0  0  0  0  0  0  0  0  0  0  0  0
   21.0666   17.7638   25.2744 H   0  0  0  0  0  0  0  0  0  0  0  0
   21.7118   19.3921   25.4556 H   0  0  0  0  0  0  0  0  0  0  0  0
   20.9047   18.9933   23.4726 C   0  0  0  0  0  0  0  0  0  0  0  0
   20.7086   20.0473   23.2355 H   0  0  0  0  0  0  0  0  0  0  0  0
   21.9104   18.7641   23.0953 H   0  0  0  0  0  0  0  0  0  0  0  0
   19.8732   18.0842   22.7626 C   0  0  0  0  0  0  0  0  0  0  0  0
   18.8568   18.3529   23.0818 H   0  0  0  0  0  0  0  0  0  0  0  0
   20.0332   17.0455   23.0825 H   0  0  0  0  0  0  0  0  0  0  0  0
   19.9607   18.1418   21.2190 C   0  0  0  0  0  0  0  0  0  0  0  0
   20.9741   17.8660   20.8969 H   0  0  0  0  0  0  0  0  0  0  0  0
   19.2851   17.3816   20.8037 H   0  0  0  0  0  0  0  0  0  0  0  0
   19.5846   19.5211   20.6323 C   0  0  0  0  0  0  0  0  0  0  0  0
   20.2959   20.2844   20.9741 H   0  0  0  0  0  0  0  0  0  0  0  0
   18.5925   19.8208   20.9972 H   0  0  0  0  0  0  0  0  0  0  0  0
   19.5775   19.4969   19.0905 C   0  0  0  0  0  0  0  0  0  0  0  0
   20.5664   19.2264   18.6978 H   0  0  0  0  0  0  0  0  0  0  0  0
   19.3118   20.4837   18.6895 H   0  0  0  0  0  0  0  0  0  0  0  0
   18.8473   18.7697   18.7119 H   0  0  0  0  0  0  0  0  0  0  0  0
  1  2  1  0  0  0  0
  1  3  2  0  0  0  0
  1  4  1  0  0  0  0
  4  5  1  0  0  0  0
  4  6  1  0  0  0  0
  4  7  1  0  0  0  0
  7  8  1  0  0  0  0
  7  9  1  0  0  0  0
  7 10  1  0  0  0  0
 10 11  1  0  0  0  0
 10 12  1  0  0  0  0
 10 13  1  0  0  0  0
 13 14  1  0  0  0  0
 13 15  1  0  0  0  0
 13 16  1  0  0  0  0
 16 17  1  0  0  0  0
 16 18  1  0  0  0  0
 16 19  1  0  0  0  0
 19 20  1  0  0  0  0
 19 21  1  0  0  0  0
 19 22  1  0  0  0  0
M  END
> <VM2 Rank>
19

> <Conf_Id>
179

> <Probability>
0.71

> <Sum Probability>
93.17

> <Delta G>
2.268

> <G>
-14.731

> <E>
-34.711

> <-TS>
19.980

> <U+W>
-52.596

> <U>
8.925

> <W>
-61.521

> <W(PB)>
-63.790

> <W(SA)>
2.269

> <Valence>
7.881

> <Coulomb>
0.349

> <VdW>
0.695

> <VdW6>
-8.049

> <VdW12>
8.743

> <Bond>
0.156

> <Angle>
2.660

> <Pdih>
5.065

> <Idih>
0.001

> <Tether>
0.000

$$$$
VeraChem MOL file


 22 21  0  0  0  0  0  0  0  0999 V2000     
   19.6918   19.3576   25.6658 C   0  0  0  0  0  0  0  0  0  0  0  0
   19.5130   20.5562   25.5765 O   0  5  0  0  0  0  0  0  0  0  0  0
   18.9615   18.6135   26.2903 O   0  0  0  0  0  0  0  0  0  0  0  0
   20.9116   18.7544   24.9746 C   0  0  0  0  0  0  0  0  0  0  0  0
   21.3970   18.0833   25.6930 H   0  0  0  0  0  0  0  0  0  0  0  0
   21.6254   19.5588   24.7592 H   0  0  0  0  0  0  0  0  0  0  0  0
   20.5791   17.9719   23.6777 C   0  0  0  0  0  0  0  0  0  0  0  0
   21.4865   17.4620   23.3265 H   0  0  0  0  0  0  0  0  0  0  0  0
   19.8433   17.1879   23.9045 H   0  0  0  0  0  0  0  0  0  0  0  0
   20.0416   18.8857   22.5534 C   0  0  0  0  0  0  0  0  0  0  0  0
   20.7763   19.6755   22.3497 H   0  0  0  0  0  0  0  0  0  0  0  0
   19.1217   19.3837   22.8894 H   0  0  0  0  0  0  0  0  0  0  0  0
   19.7518   18.0889   21.2605 C   0  0  0  0  0  0  0  0  0  0  0  0
   20.6801   17.6321   20.8908 H   0  0  0  0  0  0  0  0  0  0  0  0
   19.0700   17.2606   21.4969 H   0  0  0  0  0  0  0  0  0  0  0  0
   19.1151   18.9444   20.1407 C   0  0  0  0  0  0  0  0  0  0  0  0
   18.1831   19.3983   20.5052 H   0  0  0  0  0  0  0  0  0  0  0  0
   18.8340   18.2838   19.3090 H   0  0  0  0  0  0  0  0  0  0  0  0
   20.0544   20.0464   19.6045 C   0  0  0  0  0  0  0  0  0  0  0  0
   19.5915   20.5654   18.7552 H   0  0  0  0  0  0  0  0  0  0  0  0
   21.0058   19.6193   19.2618 H   0  0  0  0  0  0  0  0  0  0  0  0
   20.2711   20.7975   20.3743 H   0  0  0  0  0  0  0  0  0  0  0  0
  1  2  1  0  0  0  0
  1  3  2  0  0  0  0
  1  4  1  0  0  0  0
  4  5  1  0  0  0  0
  4  6  1  0  0  0  0
  4  7  1  0  0  0  0
  7  8  1  0  0  0  0
  7  9  1  0  0  0  0
  7 10  1  0  0  0  0
 10 11  1  0  0  0  0
 10 12  1  0  0  0  0
 10 13  1  0  0  0  0
 13 14  1  0  0  0  0
 13 15  1  0  0  0  0
 13 16  1  0  0  0  0
 16 17  1  0  0  0  0
 16 18  1  0  0  0  0
 16 19  1  0  0  0  0
 19 20  1  0  0  0  0
 19 21  1  0  0  0  0
 19 22  1  0  0  0  0
M  END
> <VM2 Rank>
20

> <Conf_Id>
90

> <Probability>
0.63

> <Sum Probability>
93.80

> <Delta G>
2.339

> <G>
-14.660

> <E>
-34.645

> <-TS>
19.986

> <U+W>
-52.530

> <U>
9.110

> <W>
-61.640

> <W(PB)>
-63.919

> <W(SA)>
2.279

> <Valence>
7.861

> <Coulomb>
0.529

> <VdW>
0.720

> <VdW6>
-7.989

> <VdW12>
8.709

> <Bond>
0.152

> <Angle>
2.653

> <Pdih>
5.055

> <Idih>
0.001

> <Tether>
0.000

$$$$
VeraChem MOL file


 22 21  0  0  0  0  0  0  0  0999 V2000     
   19.7186   18.8577   25.6849 C   0  0  0  0  0  0  0  0  0  0  0  0
   18.9103   19.5648   26.2537 O   0  5  0  0  0  0  0  0  0  0  0  0
   19.6695   17.6435   25.6881 O   0  0  0  0  0  0  0  0  0  0  0  0
   20.8697   19.5333   24.9448 C   0  0  0  0  0  0  0  0  0  0  0  0
   21.6664   18.7959   24.7885 H   0  0  0  0  0  0  0  0  0  0  0  0
   21.2776   20.3054   25.6078 H   0  0  0  0  0  0  0  0  0  0  0  0
   20.4609   20.1745   23.5932 C   0  0  0  0  0  0  0  0  0  0  0  0
   19.6445   20.8904   23.7625 H   0  0  0  0  0  0  0  0  0  0  0  0
   21.3099   20.7501   23.2004 H   0  0  0  0  0  0  0  0  0  0  0  0
   20.0287   19.1253   22.5442 C   0  0  0  0  0  0  0  0  0  0  0  0
   19.1658   18.5591   22.9210 H   0  0  0  0  0  0  0  0  0  0  0  0
   20.8443   18.4052   22.3987 H   0  0  0  0  0  0  0  0  0  0  0  0
   19.6610   19.7855   21.1954 C   0  0  0  0  0  0  0  0  0  0  0  0
   18.8937   20.5520   21.3705 H   0  0  0  0  0  0  0  0  0  0  0  0
   20.5368   20.3090   20.7881 H   0  0  0  0  0  0  0  0  0  0  0  0
   19.1238   18.7838   20.1469 C   0  0  0  0  0  0  0  0  0  0  0  0
   18.7773   19.3451   19.2682 H   0  0  0  0  0  0  0  0  0  0  0  0
   18.2441   18.2623   20.5487 H   0  0  0  0  0  0  0  0  0  0  0  0
   20.1775   17.7505   19.6927 C   0  0  0  0  0  0  0  0  0  0  0  0
   21.0794   18.2492   19.3146 H   0  0  0  0  0  0  0  0  0  0  0  0
   19.7761   17.1217   18.8875 H   0  0  0  0  0  0  0  0  0  0  0  0
   20.4698   17.0879   20.5169 H   0  0  0  0  0  0  0  0  0  0  0  0
  1  2  1  0  0  0  0
  1  3  2  0  0  0  0
  1  4  1  0  0  0  0
  4  5  1  0  0  0  0
  4  6  1  0  0  0  0
  4  7  1  0  0  0  0
  7  8  1  0  0  0  0
  7  9  1  0  0  0  0
  7 10  1  0  0  0  0
 10 11  1  0  0  0  0
 10 12  1  0  0  0  0
 10 13  1  0  0  0  0
 13 14  1  0  0  0  0
 13 15  1  0  0  0  0
 13 16  1  0  0  0  0
 16 17  1  0  0  0  0
 16 18  1  0  0  0  0
 16 19  1  0  0  0  0
 19 20  1  0  0  0  0
 19 21  1  0  0  0  0
 19 22  1  0  0  0  0
M  END
> <VM2 Rank>
21

> <Conf_Id>
367

> <Probability>
0.61

> <Sum Probability>
94.42

> <Delta G>
2.359

> <G>
-14.640

> <E>
-34.625

> <-TS>
19.985

> <U+W>
-52.510

> <U>
9.110

> <W>
-61.620

> <W(PB)>
-63.905

> <W(SA)>
2.285

> <Valence>
7.861

> <Coulomb>
0.529

> <VdW>
0.720

> <VdW6>
-7.989

> <VdW12>
8.709

> <Bond>
0.152

> <Angle>
2.653

> <Pdih>
5.055

> <Idih>
0.001

> <Tether>
0.000

$$$$
VeraChem MOL file


 22 21  0  0  0  0  0  0  0  0999 V2000     
   20.1406   18.9862   25.6063 C   0  0  0  0  0  0  0  0  0  0  0  0
   20.6498   20.0000   26.0420 O   0  5  0  0  0  0  0  0  0  0  0  0
   20.6868   17.9007   25.6181 O   0  0  0  0  0  0  0  0  0  0  0  0
   18.7289   19.0796   25.0337 C   0  0  0  0  0  0  0  0  0  0  0  0
   18.1272   19.6647   25.7391 H   0  0  0  0  0  0  0  0  0  0  0  0
   18.2951   18.0727   25.0055 H   0  0  0  0  0  0  0  0  0  0  0  0
   18.6596   19.7321   23.6285 C   0  0  0  0  0  0  0  0  0  0  0  0
   17.6059   19.8849   23.3587 H   0  0  0  0  0  0  0  0  0  0  0  0
   19.1242   20.7273   23.6659 H   0  0  0  0  0  0  0  0  0  0  0  0
   19.3456   18.8753   22.5408 C   0  0  0  0  0  0  0  0  0  0  0  0
   18.8847   17.8785   22.5140 H   0  0  0  0  0  0  0  0  0  0  0  0
   20.4017   18.7320   22.8045 H   0  0  0  0  0  0  0  0  0  0  0  0
   19.2387   19.5323   21.1453 C   0  0  0  0  0  0  0  0  0  0  0  0
   18.1813   19.7316   20.9238 H   0  0  0  0  0  0  0  0  0  0  0  0
   19.7436   20.5079   21.1561 H   0  0  0  0  0  0  0  0  0  0  0  0
   19.8220   18.6607   20.0089 C   0  0  0  0  0  0  0  0  0  0  0  0
   19.6004   19.1420   19.0463 H   0  0  0  0  0  0  0  0  0  0  0  0
   19.3159   17.6856   19.9920 H   0  0  0  0  0  0  0  0  0  0  0  0
   21.3479   18.4521   20.1204 C   0  0  0  0  0  0  0  0  0  0  0  0
   21.8736   19.4146   20.1687 H   0  0  0  0  0  0  0  0  0  0  0  0
   21.7253   17.9043   19.2472 H   0  0  0  0  0  0  0  0  0  0  0  0
   21.6087   17.8719   21.0144 H   0  0  0  0  0  0  0  0  0  0  0  0
  1  2  1  0  0  0  0
  1  3  2  0  0  0  0
  1  4  1  0  0  0  0
  4  5  1  0  0  0  0
  4  6  1  0  0  0  0
  4  7  1  0  0  0  0
  7  8  1  0  0  0  0
  7  9  1  0  0  0  0
  7 10  1  0  0  0  0
 10 11  1  0  0  0  0
 10 12  1  0  0  0  0
 10 13  1  0  0  0  0
 13 14  1  0  0  0  0
 13 15  1  0  0  0  0
 13 16  1  0  0  0  0
 16 17  1  0  0  0  0
 16 18  1  0  0  0  0
 16 19  1  0  0  0  0
 19 20  1  0  0  0  0
 19 21  1  0  0  0  0
 19 22  1  0  0  0  0
M  END
> <VM2 Rank>
22

> <Conf_Id>
126

> <Probability>
0.61

> <Sum Probability>
95.02

> <Delta G>
2.364

> <G>
-14.635

> <E>
-34.631

> <-TS>
19.996

> <U+W>
-52.516

> <U>
9.377

> <W>
-61.892

> <W(PB)>
-64.194

> <W(SA)>
2.301

> <Valence>
7.860

> <Coulomb>
0.810

> <VdW>
0.706

> <VdW6>
-8.019

> <VdW12>
8.725

> <Bond>
0.153

> <Angle>
2.651

> <Pdih>
5.056

> <Idih>
0.001

> <Tether>
0.000

$$$$
VeraChem MOL file


 22 21  0  0  0  0  0  0  0  0999 V2000     
   19.7517   19.1504   25.8374 C   0  0  0  0  0  0  0  0  0  0  0  0
   19.8001   20.3026   26.2206 O   0  5  0  0  0  0  0  0  0  0  0  0
   18.9000   18.3593   26.1920 O   0  0  0  0  0  0  0  0  0  0  0  0
   20.8318   18.6669   24.8736 C   0  0  0  0  0  0  0  0  0  0  0  0
   20.8570   17.5707   24.8964 H   0  0  0  0  0  0  0  0  0  0  0  0
   21.7962   19.0145   25.2625 H   0  0  0  0  0  0  0  0  0  0  0  0
   20.6504   19.1681   23.4171 C   0  0  0  0  0  0  0  0  0  0  0  0
   20.5865   20.2650   23.4151 H   0  0  0  0  0  0  0  0  0  0  0  0
   21.5473   18.9015   22.8438 H   0  0  0  0  0  0  0  0  0  0  0  0
   19.3977   18.5681   22.7344 C   0  0  0  0  0  0  0  0  0  0  0  0
   18.5128   18.7896   23.3466 H   0  0  0  0  0  0  0  0  0  0  0  0
   19.4831   17.4734   22.6994 H   0  0  0  0  0  0  0  0  0  0  0  0
   19.1512   19.1149   21.3082 C   0  0  0  0  0  0  0  0  0  0  0  0
   18.1809   18.7396   20.9553 H   0  0  0  0  0  0  0  0  0  0  0  0
   19.0660   20.2097   21.3436 H   0  0  0  0  0  0  0  0  0  0  0  0
   20.2440   18.7094   20.2934 C   0  0  0  0  0  0  0  0  0  0  0  0
   20.3671   17.6176   20.2978 H   0  0  0  0  0  0  0  0  0  0  0  0
   21.2100   19.1425   20.5838 H   0  0  0  0  0  0  0  0  0  0  0  0
   19.8931   19.1792   18.8673 C   0  0  0  0  0  0  0  0  0  0  0  0
   19.7906   20.2716   18.8281 H   0  0  0  0  0  0  0  0  0  0  0  0
   18.9490   18.7336   18.5275 H   0  0  0  0  0  0  0  0  0  0  0  0
   20.6796   18.8869   18.1594 H   0  0  0  0  0  0  0  0  0  0  0  0
  1  2  1  0  0  0  0
  1  3  2  0  0  0  0
  1  4  1  0  0  0  0
  4  5  1  0  0  0  0
  4  6  1  0  0  0  0
  4  7  1  0  0  0  0
  7  8  1  0  0  0  0
  7  9  1  0  0  0  0
  7 10  1  0  0  0  0
 10 11  1  0  0  0  0
 10 12  1  0  0  0  0
 10 13  1  0  0  0  0
 13 14  1  0  0  0  0
 13 15  1  0  0  0  0
 13 16  1  0  0  0  0
 16 17  1  0  0  0  0
 16 18  1  0  0  0  0
 16 19  1  0  0  0  0
 19 20  1  0  0  0  0
 19 21  1  0  0  0  0
 19 22  1  0  0  0  0
M  END
> <VM2 Rank>
23

> <Conf_Id>
373

> <Probability>
0.59

> <Sum Probability>
95.61

> <Delta G>
2.381

> <G>
-14.618

> <E>
-34.606

> <-TS>
19.988

> <U+W>
-52.490

> <U>
8.586

> <W>
-61.076

> <W(PB)>
-63.352

> <W(SA)>
2.276

> <Valence>
7.933

> <Coulomb>
-0.125

> <VdW>
0.778

> <VdW6>
-7.981

> <VdW12>
8.759

> <Bond>
0.160

> <Angle>
2.698

> <Pdih>
5.074

> <Idih>
0.000

> <Tether>
0.000

$$$$
VeraChem MOL file


 22 21  0  0  0  0  0  0  0  0999 V2000     
   19.6160   18.9320   25.6922 C   0  0  0  0  0  0  0  0  0  0  0  0
   18.7405   19.7158   26.0020 O   0  5  0  0  0  0  0  0  0  0  0  0
   19.5664   17.7409   25.9281 O   0  0  0  0  0  0  0  0  0  0  0  0
   20.8564   19.4744   24.9877 C   0  0  0  0  0  0  0  0  0  0  0  0
   21.7316   19.0232   25.4697 H   0  0  0  0  0  0  0  0  0  0  0  0
   20.9169   20.5547   25.1674 H   0  0  0  0  0  0  0  0  0  0  0  0
   20.8946   19.1809   23.4654 C   0  0  0  0  0  0  0  0  0  0  0  0
   21.8715   19.4868   23.0675 H   0  0  0  0  0  0  0  0  0  0  0  0
   20.8133   18.0970   23.3102 H   0  0  0  0  0  0  0  0  0  0  0  0
   19.7747   19.9177   22.6923 C   0  0  0  0  0  0  0  0  0  0  0  0
   19.8213   20.9889   22.9314 H   0  0  0  0  0  0  0  0  0  0  0  0
   18.7915   19.5669   23.0352 H   0  0  0  0  0  0  0  0  0  0  0  0
   19.8742   19.7521   21.1573 C   0  0  0  0  0  0  0  0  0  0  0  0
   19.1229   20.4018   20.6879 H   0  0  0  0  0  0  0  0  0  0  0  0
   20.8536   20.1094   20.8109 H   0  0  0  0  0  0  0  0  0  0  0  0
   19.6502   18.2997   20.6791 C   0  0  0  0  0  0  0  0  0  0  0  0
   18.6944   17.9243   21.0699 H   0  0  0  0  0  0  0  0  0  0  0  0
   20.4377   17.6453   21.0752 H   0  0  0  0  0  0  0  0  0  0  0  0
   19.6469   18.2053   19.1400 C   0  0  0  0  0  0  0  0  0  0  0  0
   20.6028   18.5494   18.7237 H   0  0  0  0  0  0  0  0  0  0  0  0
   18.8446   18.8192   18.7100 H   0  0  0  0  0  0  0  0  0  0  0  0
   19.4900   17.1681   18.8165 H   0  0  0  0  0  0  0  0  0  0  0  0
  1  2  1  0  0  0  0
  1  3  2  0  0  0  0
  1  4  1  0  0  0  0
  4  5  1  0  0  0  0
  4  6  1  0  0  0  0
  4  7  1  0  0  0  0
  7  8  1  0  0  0  0
  7  9  1  0  0  0  0
  7 10  1  0  0  0  0
 10 11  1  0  0  0  0
 10 12  1  0  0  0  0
 10 13  1  0  0  0  0
 13 14  1  0  0  0  0
 13 15  1  0  0  0  0
 13 16  1  0  0  0  0
 16 17  1  0  0  0  0
 16 18  1  0  0  0  0
 16 19  1  0  0  0  0
 19 20  1  0  0  0  0
 19 21  1  0  0  0  0
 19 22  1  0  0  0  0
M  END
> <VM2 Rank>
24

> <Conf_Id>
183

> <Probability>
0.58

> <Sum Probability>
96.20

> <Delta G>
2.388

> <G>
-14.611

> <E>
-34.592

> <-TS>
19.981

> <U+W>
-52.477

> <U>
8.925

> <W>
-61.401

> <W(PB)>
-63.682

> <W(SA)>
2.281

> <Valence>
7.881

> <Coulomb>
0.349

> <VdW>
0.695

> <VdW6>
-8.049

> <VdW12>
8.743

> <Bond>
0.156

> <Angle>
2.660

> <Pdih>
5.065

> <Idih>
0.001

> <Tether>
0.000

$$$$
VeraChem MOL file


 22 21  0  0  0  0  0  0  0  0999 V2000     
   20.1252   19.2696   25.5954 C   0  0  0  0  0  0  0  0  0  0  0  0
   20.5513   20.4054   25.5220 O   0  5  0  0  0  0  0  0  0  0  0  0
   20.7389   18.3529   26.1053 O   0  0  0  0  0  0  0  0  0  0  0  0
   18.7343   18.9811   25.0375 C   0  0  0  0  0  0  0  0  0  0  0  0
   18.1945   19.9303   24.9341 H   0  0  0  0  0  0  0  0  0  0  0  0
   18.1962   18.3902   25.7880 H   0  0  0  0  0  0  0  0  0  0  0  0
   18.7415   18.2195   23.6865 C   0  0  0  0  0  0  0  0  0  0  0  0
   19.3106   17.2860   23.7979 H   0  0  0  0  0  0  0  0  0  0  0  0
   17.7115   17.9338   23.4335 H   0  0  0  0  0  0  0  0  0  0  0  0
   19.3356   19.0597   22.5336 C   0  0  0  0  0  0  0  0  0  0  0  0
   20.3689   19.3359   22.7814 H   0  0  0  0  0  0  0  0  0  0  0  0
   18.7699   19.9958   22.4326 H   0  0  0  0  0  0  0  0  0  0  0  0
   19.3061   18.2901   21.1930 C   0  0  0  0  0  0  0  0  0  0  0  0
   19.9136   17.3785   21.2763 H   0  0  0  0  0  0  0  0  0  0  0  0
   18.2774   17.9613   20.9918 H   0  0  0  0  0  0  0  0  0  0  0  0
   19.7966   19.1301   19.9908 C   0  0  0  0  0  0  0  0  0  0  0  0
   19.1881   20.0407   19.9015 H   0  0  0  0  0  0  0  0  0  0  0  0
   19.6324   18.5555   19.0688 H   0  0  0  0  0  0  0  0  0  0  0  0
   21.2905   19.5105   20.0798 C   0  0  0  0  0  0  0  0  0  0  0  0
   21.4832   20.1822   20.9257 H   0  0  0  0  0  0  0  0  0  0  0  0
   21.6100   20.0275   19.1658 H   0  0  0  0  0  0  0  0  0  0  0  0
   21.9170   18.6170   20.1994 H   0  0  0  0  0  0  0  0  0  0  0  0
  1  2  1  0  0  0  0
  1  3  2  0  0  0  0
  1  4  1  0  0  0  0
  4  5  1  0  0  0  0
  4  6  1  0  0  0  0
  4  7  1  0  0  0  0
  7  8  1  0  0  0  0
  7  9  1  0  0  0  0
  7 10  1  0  0  0  0
 10 11  1  0  0  0  0
 10 12  1  0  0  0  0
 10 13  1  0  0  0  0
 13 14  1  0  0  0  0
 13 15  1  0  0  0  0
 13 16  1  0  0  0  0
 16 17  1  0  0  0  0
 16 18  1  0  0  0  0
 16 19  1  0  0  0  0
 19 20  1  0  0  0  0
 19 21  1  0  0  0  0
 19 22  1  0  0  0  0
M  END
> <VM2 Rank>
25

> <Conf_Id>
178

> <Probability>
0.58

> <Sum Probability>
96.78

> <Delta G>
2.389

> <G>
-14.609

> <E>
-34.606

> <-TS>
19.997

> <U+W>
-52.491

> <U>
9.376

> <W>
-61.867

> <W(PB)>
-64.155

> <W(SA)>
2.288

> <Valence>
7.861

> <Coulomb>
0.810

> <VdW>
0.706

> <VdW6>
-8.019

> <VdW12>
8.725

> <Bond>
0.153

> <Angle>
2.651

> <Pdih>
5.056

> <Idih>
0.001

> <Tether>
0.000

$$$$
VeraChem MOL file


 22 21  0  0  0  0  0  0  0  0999 V2000     
   19.7553   19.0826   25.8400 C   0  0  0  0  0  0  0  0  0  0  0  0
   18.8222   19.8024   26.1367 O   0  5  0  0  0  0  0  0  0  0  0  0
   19.9255   17.9747   26.3098 O   0  0  0  0  0  0  0  0  0  0  0  0
   20.7814   19.6041   24.8377 C   0  0  0  0  0  0  0  0  0  0  0  0
   21.7759   19.3926   25.2480 H   0  0  0  0  0  0  0  0  0  0  0  0
   20.6887   20.6952   24.7767 H   0  0  0  0  0  0  0  0  0  0  0  0
   20.6607   18.9767   23.4244 C   0  0  0  0  0  0  0  0  0  0  0  0
   21.5263   19.2933   22.8288 H   0  0  0  0  0  0  0  0  0  0  0  0
   20.7147   17.8823   23.5064 H   0  0  0  0  0  0  0  0  0  0  0  0
   19.3538   19.3852   22.7030 C   0  0  0  0  0  0  0  0  0  0  0  0
   19.3216   20.4768   22.5841 H   0  0  0  0  0  0  0  0  0  0  0  0
   18.4951   19.1177   23.3340 H   0  0  0  0  0  0  0  0  0  0  0  0
   19.1730   18.7077   21.3239 C   0  0  0  0  0  0  0  0  0  0  0  0
   19.2053   17.6161   21.4433 H   0  0  0  0  0  0  0  0  0  0  0  0
   18.1696   18.9490   20.9472 H   0  0  0  0  0  0  0  0  0  0  0  0
   20.2204   19.1489   20.2766 C   0  0  0  0  0  0  0  0  0  0  0  0
   21.2260   18.8450   20.5953 H   0  0  0  0  0  0  0  0  0  0  0  0
   20.2262   20.2447   20.1971 H   0  0  0  0  0  0  0  0  0  0  0  0
   19.9277   18.5367   18.8919 C   0  0  0  0  0  0  0  0  0  0  0  0
   19.9427   17.4398   18.9367 H   0  0  0  0  0  0  0  0  0  0  0  0
   20.6813   18.8565   18.1606 H   0  0  0  0  0  0  0  0  0  0  0  0
   18.9427   18.8515   18.5230 H   0  0  0  0  0  0  0  0  0  0  0  0
  1  2  1  0  0  0  0
  1  3  2  0  0  0  0
  1  4  1  0  0  0  0
  4  5  1  0  0  0  0
  4  6  1  0  0  0  0
  4  7  1  0  0  0  0
  7  8  1  0  0  0  0
  7  9  1  0  0  0  0
  7 10  1  0  0  0  0
 10 11  1  0  0  0  0
 10 12  1  0  0  0  0
 10 13  1  0  0  0  0
 13 14  1  0  0  0  0
 13 15  1  0  0  0  0
 13 16  1  0  0  0  0
 16 17  1  0  0  0  0
 16 18  1  0  0  0  0
 16 19  1  0  0  0  0
 19 20  1  0  0  0  0
 19 21  1  0  0  0  0
 19 22  1  0  0  0  0
M  END
> <VM2 Rank>
26

> <Conf_Id>
491

> <Probability>
0.57

> <Sum Probability>
97.35

> <Delta G>
2.403

> <G>
-14.596

> <E>
-34.585

> <-TS>
19.988

> <U+W>
-52.469

> <U>
8.586

> <W>
-61.055

> <W(PB)>
-63.352

> <W(SA)>
2.296

> <Valence>
7.933

> <Coulomb>
-0.125

> <VdW>
0.778

> <VdW6>
-7.981

> <VdW12>
8.759

> <Bond>
0.160

> <Angle>
2.698

> <Pdih>
5.074

> <Idih>
0.000

> <Tether>
0.000

$$$$
VeraChem MOL file


 22 21  0  0  0  0  0  0  0  0999 V2000     
   19.9752   19.4203   25.4490 C   0  0  0  0  0  0  0  0  0  0  0  0
   20.4060   20.4988   25.0914 O   0  5  0  0  0  0  0  0  0  0  0  0
   19.1599   19.2841   26.3401 O   0  0  0  0  0  0  0  0  0  0  0  0
   20.5070   18.1648   24.7632 C   0  0  0  0  0  0  0  0  0  0  0  0
   20.8267   17.4738   25.5518 H   0  0  0  0  0  0  0  0  0  0  0  0
   21.4083   18.4281   24.1982 H   0  0  0  0  0  0  0  0  0  0  0  0
   19.4727   17.4551   23.8472 C   0  0  0  0  0  0  0  0  0  0  0  0
   19.9174   16.5332   23.4488 H   0  0  0  0  0  0  0  0  0  0  0  0
   18.6153   17.1433   24.4597 H   0  0  0  0  0  0  0  0  0  0  0  0
   18.9566   18.3212   22.6719 C   0  0  0  0  0  0  0  0  0  0  0  0
   18.4682   19.2243   23.0632 H   0  0  0  0  0  0  0  0  0  0  0  0
   18.1799   17.7561   22.1388 H   0  0  0  0  0  0  0  0  0  0  0  0
   20.0641   18.7232   21.6710 C   0  0  0  0  0  0  0  0  0  0  0  0
   20.8017   19.3654   22.1705 H   0  0  0  0  0  0  0  0  0  0  0  0
   20.5961   17.8248   21.3297 H   0  0  0  0  0  0  0  0  0  0  0  0
   19.4863   19.4741   20.4529 C   0  0  0  0  0  0  0  0  0  0  0  0
   18.9542   20.3738   20.7920 H   0  0  0  0  0  0  0  0  0  0  0  0
   18.7487   18.8401   19.9416 H   0  0  0  0  0  0  0  0  0  0  0  0
   20.5923   19.8774   19.4572 C   0  0  0  0  0  0  0  0  0  0  0  0
   20.1641   20.4102   18.5982 H   0  0  0  0  0  0  0  0  0  0  0  0
   21.1213   18.9931   19.0785 H   0  0  0  0  0  0  0  0  0  0  0  0
   21.3276   20.5388   19.9341 H   0  0  0  0  0  0  0  0  0  0  0  0
  1  2  1  0  0  0  0
  1  3  2  0  0  0  0
  1  4  1  0  0  0  0
  4  5  1  0  0  0  0
  4  6  1  0  0  0  0
  4  7  1  0  0  0  0
  7  8  1  0  0  0  0
  7  9  1  0  0  0  0
  7 10  1  0  0  0  0
 10 11  1  0  0  0  0
 10 12  1  0  0  0  0
 10 13  1  0  0  0  0
 13 14  1  0  0  0  0
 13 15  1  0  0  0  0
 13 16  1  0  0  0  0
 16 17  1  0  0  0  0
 16 18  1  0  0  0  0
 16 19  1  0  0  0  0
 19 20  1  0  0  0  0
 19 21  1  0  0  0  0
 19 22  1  0  0  0  0
M  END
> <VM2 Rank>
27

> <Conf_Id>
537

> <Probability>
0.40

> <Sum Probability>
97.75

> <Delta G>
2.612

> <G>
-14.387

> <E>
-34.414

> <-TS>
20.027

> <U+W>
-52.299

> <U>
9.623

> <W>
-61.922

> <W(PB)>
-64.197

> <W(SA)>
2.275

> <Valence>
7.870

> <Coulomb>
1.264

> <VdW>
0.489

> <VdW6>
-8.389

> <VdW12>
8.878

> <Bond>
0.170

> <Angle>
2.768

> <Pdih>
4.931

> <Idih>
0.001

> <Tether>
0.000

$$$$
VeraChem MOL file


 22 21  0  0  0  0  0  0  0  0999 V2000     
   20.0967   19.3343   25.4524 C   0  0  0  0  0  0  0  0  0  0  0  0
   20.9847   20.0888   25.1076 O   0  5  0  0  0  0  0  0  0  0  0  0
   20.2048   18.5437   26.3693 O   0  0  0  0  0  0  0  0  0  0  0  0
   18.7628   19.4007   24.7139 C   0  0  0  0  0  0  0  0  0  0  0  0
   18.7341   20.3229   24.1225 H   0  0  0  0  0  0  0  0  0  0  0  0
   17.9758   19.4939   25.4713 H   0  0  0  0  0  0  0  0  0  0  0  0
   18.4701   18.1654   23.8189 C   0  0  0  0  0  0  0  0  0  0  0  0
   18.4365   17.2699   24.4547 H   0  0  0  0  0  0  0  0  0  0  0  0
   17.4686   18.2683   23.3797 H   0  0  0  0  0  0  0  0  0  0  0  0
   19.5016   17.9348   22.6874 C   0  0  0  0  0  0  0  0  0  0  0  0
   19.2456   17.0007   22.1689 H   0  0  0  0  0  0  0  0  0  0  0  0
   20.5001   17.7841   23.1207 H   0  0  0  0  0  0  0  0  0  0  0  0
   19.5523   19.0858   21.6567 C   0  0  0  0  0  0  0  0  0  0  0  0
   18.5421   19.2804   21.2717 H   0  0  0  0  0  0  0  0  0  0  0  0
   19.8951   20.0077   22.1450 H   0  0  0  0  0  0  0  0  0  0  0  0
   20.4974   18.7576   20.4817 C   0  0  0  0  0  0  0  0  0  0  0  0
   20.1626   17.8381   19.9817 H   0  0  0  0  0  0  0  0  0  0  0  0
   21.5089   18.5633   20.8645 H   0  0  0  0  0  0  0  0  0  0  0  0
   20.5496   19.9079   19.4562 C   0  0  0  0  0  0  0  0  0  0  0  0
   19.5551   20.1033   19.0343 H   0  0  0  0  0  0  0  0  0  0  0  0
   21.2260   19.6579   18.6285 H   0  0  0  0  0  0  0  0  0  0  0  0
   20.9122   20.8333   19.9227 H   0  0  0  0  0  0  0  0  0  0  0  0
  1  2  1  0  0  0  0
  1  3  2  0  0  0  0
  1  4  1  0  0  0  0
  4  5  1  0  0  0  0
  4  6  1  0  0  0  0
  4  7  1  0  0  0  0
  7  8  1  0  0  0  0
  7  9  1  0  0  0  0
  7 10  1  0  0  0  0
 10 11  1  0  0  0  0
 10 12  1  0  0  0  0
 10 13  1  0  0  0  0
 13 14  1  0  0  0  0
 13 15  1  0  0  0  0
 13 16  1  0  0  0  0
 16 17  1  0  0  0  0
 16 18  1  0  0  0  0
 16 19  1  0  0  0  0
 19 20  1  0  0  0  0
 19 21  1  0  0  0  0
 19 22  1  0  0  0  0
M  END
> <VM2 Rank>
28

> <Conf_Id>
84

> <Probability>
0.39

> <Sum Probability>
98.14

> <Delta G>
2.624

> <G>
-14.375

> <E>
-34.402

> <-TS>
20.027

> <U+W>
-52.287

> <U>
9.624

> <W>
-61.911

> <W(PB)>
-64.185

> <W(SA)>
2.274

> <Valence>
7.870

> <Coulomb>
1.265

> <VdW>
0.489

> <VdW6>
-8.389

> <VdW12>
8.878

> <Bond>
0.170

> <Angle>
2.768

> <Pdih>
4.931

> <Idih>
0.001

> <Tether>
0.000

$$$$
VeraChem MOL file


 22 21  0  0  0  0  0  0  0  0999 V2000     
   19.9409   18.8672   25.6812 C   0  0  0  0  0  0  0  0  0  0  0  0
   19.8596   19.7081   26.5546 O   0  5  0  0  0  0  0  0  0  0  0  0
   20.5776   17.8385   25.7952 O   0  0  0  0  0  0  0  0  0  0  0  0
   19.2202   19.1264   24.3631 C   0  0  0  0  0  0  0  0  0  0  0  0
   18.9055   18.1577   23.9587 H   0  0  0  0  0  0  0  0  0  0  0  0
   18.3113   19.7007   24.5785 H   0  0  0  0  0  0  0  0  0  0  0  0
   20.1011   19.8843   23.3364 C   0  0  0  0  0  0  0  0  0  0  0  0
   20.4672   20.8102   23.8008 H   0  0  0  0  0  0  0  0  0  0  0  0
   20.9932   19.2869   23.1058 H   0  0  0  0  0  0  0  0  0  0  0  0
   19.3524   20.2495   22.0301 C   0  0  0  0  0  0  0  0  0  0  0  0
   20.0269   20.8264   21.3837 H   0  0  0  0  0  0  0  0  0  0  0  0
   18.5234   20.9275   22.2745 H   0  0  0  0  0  0  0  0  0  0  0  0
   18.7871   19.0440   21.2337 C   0  0  0  0  0  0  0  0  0  0  0  0
   17.9925   18.5624   21.8184 H   0  0  0  0  0  0  0  0  0  0  0  0
   18.2986   19.4227   20.3256 H   0  0  0  0  0  0  0  0  0  0  0  0
   19.8307   17.9740   20.8288 C   0  0  0  0  0  0  0  0  0  0  0  0
   19.3133   17.1633   20.2979 H   0  0  0  0  0  0  0  0  0  0  0  0
   20.2715   17.5174   21.7250 H   0  0  0  0  0  0  0  0  0  0  0  0
   20.9505   18.5271   19.9210 C   0  0  0  0  0  0  0  0  0  0  0  0
   21.5631   19.2677   20.4502 H   0  0  0  0  0  0  0  0  0  0  0  0
   20.5307   19.0033   19.0254 H   0  0  0  0  0  0  0  0  0  0  0  0
   21.6154   17.7173   19.5941 H   0  0  0  0  0  0  0  0  0  0  0  0
  1  2  1  0  0  0  0
  1  3  2  0  0  0  0
  1  4  1  0  0  0  0
  4  5  1  0  0  0  0
  4  6  1  0  0  0  0
  4  7  1  0  0  0  0
  7  8  1  0  0  0  0
  7  9  1  0  0  0  0
  7 10  1  0  0  0  0
 10 11  1  0  0  0  0
 10 12  1  0  0  0  0
 10 13  1  0  0  0  0
 13 14  1  0  0  0  0
 13 15  1  0  0  0  0
 13 16  1  0  0  0  0
 16 17  1  0  0  0  0
 16 18  1  0  0  0  0
 16 19  1  0  0  0  0
 19 20  1  0  0  0  0
 19 21  1  0  0  0  0
 19 22  1  0  0  0  0
M  END
> <VM2 Rank>
29

> <Conf_Id>
568

> <Probability>
0.25

> <Sum Probability>
98.39

> <Delta G>
2.890

> <G>
-14.109

> <E>
-34.425

> <-TS>
20.316

> <U+W>
-52.310

> <U>
8.874

> <W>
-61.184

> <W(PB)>
-63.414

> <W(SA)>
2.230

> <Valence>
8.479

> <Coulomb>
-0.357

> <VdW>
0.753

> <VdW6>
-9.081

> <VdW12>
9.833

> <Bond>
0.221

> <Angle>
3.208

> <Pdih>
5.050

> <Idih>
0.000

> <Tether>
0.000

$$$$
VeraChem MOL file


 22 21  0  0  0  0  0  0  0  0999 V2000     
   19.9137   19.3717   25.6619 C   0  0  0  0  0  0  0  0  0  0  0  0
   20.4352   20.4688   25.6945 O   0  5  0  0  0  0  0  0  0  0  0  0
   19.9201   18.5959   26.5971 O   0  0  0  0  0  0  0  0  0  0  0  0
   19.2304   18.9367   24.3705 C   0  0  0  0  0  0  0  0  0  0  0  0
   18.8150   19.8322   23.8946 H   0  0  0  0  0  0  0  0  0  0  0  0
   18.3876   18.2862   24.6329 H   0  0  0  0  0  0  0  0  0  0  0  0
   20.1918   18.2017   23.4009 C   0  0  0  0  0  0  0  0  0  0  0  0
   21.0155   18.8720   23.1217 H   0  0  0  0  0  0  0  0  0  0  0  0
   20.6534   17.3586   23.9332 H   0  0  0  0  0  0  0  0  0  0  0  0
   19.4920   17.6594   22.1294 C   0  0  0  0  0  0  0  0  0  0  0  0
   18.7396   16.9171   22.4284 H   0  0  0  0  0  0  0  0  0  0  0  0
   20.2272   17.1106   21.5263 H   0  0  0  0  0  0  0  0  0  0  0  0
   18.8039   18.7330   21.2456 C   0  0  0  0  0  0  0  0  0  0  0  0
   18.3626   18.2357   20.3712 H   0  0  0  0  0  0  0  0  0  0  0  0
   17.9598   19.1697   21.7951 H   0  0  0  0  0  0  0  0  0  0  0  0
   19.7283   19.8747   20.7558 C   0  0  0  0  0  0  0  0  0  0  0  0
   20.1139   20.4431   21.6127 H   0  0  0  0  0  0  0  0  0  0  0  0
   19.1290   20.5822   20.1667 H   0  0  0  0  0  0  0  0  0  0  0  0
   20.9046   19.3772   19.8882 C   0  0  0  0  0  0  0  0  0  0  0  0
   21.5910   18.7492   20.4700 H   0  0  0  0  0  0  0  0  0  0  0  0
   21.4801   20.2263   19.4977 H   0  0  0  0  0  0  0  0  0  0  0  0
   20.5420   18.7917   19.0335 H   0  0  0  0  0  0  0  0  0  0  0  0
  1  2  1  0  0  0  0
  1  3  2  0  0  0  0
  1  4  1  0  0  0  0
  4  5  1  0  0  0  0
  4  6  1  0  0  0  0
  4  7  1  0  0  0  0
  7  8  1  0  0  0  0
  7  9  1  0  0  0  0
  7 10  1  0  0  0  0
 10 11  1  0  0  0  0
 10 12  1  0  0  0  0
 10 13  1  0  0  0  0
 13 14  1  0  0  0  0
 13 15  1  0  0  0  0
 13 16  1  0  0  0  0
 16 17  1  0  0  0  0
 16 18  1  0  0  0  0
 16 19  1  0  0  0  0
 19 20  1  0  0  0  0
 19 21  1  0  0  0  0
 19 22  1  0  0  0  0
M  END
> <VM2 Rank>
30

> <Conf_Id>
104

> <Probability>
0.23

> <Sum Probability>
98.63

> <Delta G>
2.932

> <G>
-14.066

> <E>
-34.382

> <-TS>
20.316

> <U+W>
-52.267

> <U>
8.874

> <W>
-61.141

> <W(PB)>
-63.378

> <W(SA)>
2.237

> <Valence>
8.479

> <Coulomb>
-0.357

> <VdW>
0.753

> <VdW6>
-9.080

> <VdW12>
9.833

> <Bond>
0.221

> <Angle>
3.208

> <Pdih>
5.050

> <Idih>
0.000

> <Tether>
0.000

$$$$
VeraChem MOL file


 22 21  0  0  0  0  0  0  0  0999 V2000     
   19.7589   19.2002   25.7233 C   0  0  0  0  0  0  0  0  0  0  0  0
   20.1899   20.3092   25.9709 O   0  5  0  0  0  0  0  0  0  0  0  0
   20.0846   18.2009   26.3334 O   0  0  0  0  0  0  0  0  0  0  0  0
   18.7363   19.0556   24.5996 C   0  0  0  0  0  0  0  0  0  0  0  0
   18.3028   20.0412   24.3908 H   0  0  0  0  0  0  0  0  0  0  0  0
   17.9229   18.4247   24.9768 H   0  0  0  0  0  0  0  0  0  0  0  0
   19.3096   18.4369   23.2981 C   0  0  0  0  0  0  0  0  0  0  0  0
   19.7756   17.4690   23.5289 H   0  0  0  0  0  0  0  0  0  0  0  0
   18.4763   18.2334   22.6135 H   0  0  0  0  0  0  0  0  0  0  0  0
   20.3371   19.3618   22.6029 C   0  0  0  0  0  0  0  0  0  0  0  0
   21.1372   19.6099   23.3136 H   0  0  0  0  0  0  0  0  0  0  0  0
   19.8602   20.3151   22.3402 H   0  0  0  0  0  0  0  0  0  0  0  0
   20.9864   18.7300   21.3458 C   0  0  0  0  0  0  0  0  0  0  0  0
   21.7382   19.4268   20.9509 H   0  0  0  0  0  0  0  0  0  0  0  0
   21.5376   17.8284   21.6459 H   0  0  0  0  0  0  0  0  0  0  0  0
   20.0045   18.3580   20.2073 C   0  0  0  0  0  0  0  0  0  0  0  0
   19.3074   17.5804   20.5463 H   0  0  0  0  0  0  0  0  0  0  0  0
   20.5782   17.9117   19.3834 H   0  0  0  0  0  0  0  0  0  0  0  0
   19.2126   19.5664   19.6628 C   0  0  0  0  0  0  0  0  0  0  0  0
   18.6029   19.2689   18.7999 H   0  0  0  0  0  0  0  0  0  0  0  0
   19.8905   20.3667   19.3390 H   0  0  0  0  0  0  0  0  0  0  0  0
   18.5353   19.9745   20.4236 H   0  0  0  0  0  0  0  0  0  0  0  0
  1  2  1  0  0  0  0
  1  3  2  0  0  0  0
  1  4  1  0  0  0  0
  4  5  1  0  0  0  0
  4  6  1  0  0  0  0
  4  7  1  0  0  0  0
  7  8  1  0  0  0  0
  7  9  1  0  0  0  0
  7 10  1  0  0  0  0
 10 11  1  0  0  0  0
 10 12  1  0  0  0  0
 10 13  1  0  0  0  0
 13 14  1  0  0  0  0
 13 15  1  0  0  0  0
 13 16  1  0  0  0  0
 16 17  1  0  0  0  0
 16 18  1  0  0  0  0
 16 19  1  0  0  0  0
 19 20  1  0  0  0  0
 19 21  1  0  0  0  0
 19 22  1  0  0  0  0
M  END
> <VM2 Rank>
31

> <Conf_Id>
317

> <Probability>
0.11

> <Sum Probability>
98.73

> <Delta G>
3.403

> <G>
-13.596

> <E>
-33.890

> <-TS>
20.294

> <U+W>
-51.774

> <U>
9.546

> <W>
-61.321

> <W(PB)>
-63.553

> <W(SA)>
2.233

> <Valence>
8.350

> <Coulomb>
0.448

> <VdW>
0.749

> <VdW6>
-8.872

> <VdW12>
9.620

> <Bond>
0.198

> <Angle>
3.089

> <Pdih>
5.062

> <Idih>
0.001

> <Tether>
0.000

$$$$
VeraChem MOL file


 22 21  0  0  0  0  0  0  0  0999 V2000     
   19.7684   19.0252   25.7300 C   0  0  0  0  0  0  0  0  0  0  0  0
   19.9822   20.0974   26.2607 O   0  5  0  0  0  0  0  0  0  0  0  0
   20.3152   17.9912   26.0597 O   0  0  0  0  0  0  0  0  0  0  0  0
   18.7407   18.9728   24.6028 C   0  0  0  0  0  0  0  0  0  0  0  0
   17.8626   19.5394   24.9342 H   0  0  0  0  0  0  0  0  0  0  0  0
   18.4167   17.9332   24.4717 H   0  0  0  0  0  0  0  0  0  0  0  0
   19.2494   19.5484   23.2555 C   0  0  0  0  0  0  0  0  0  0  0  0
   18.4018   19.6081   22.5609 H   0  0  0  0  0  0  0  0  0  0  0  0
   19.6075   20.5757   23.4098 H   0  0  0  0  0  0  0  0  0  0  0  0
   20.3735   18.6892   22.6287 C   0  0  0  0  0  0  0  0  0  0  0  0
   20.0031   17.6728   22.4416 H   0  0  0  0  0  0  0  0  0  0  0  0
   21.1927   18.5839   23.3529 H   0  0  0  0  0  0  0  0  0  0  0  0
   20.9560   19.2895   21.3244 C   0  0  0  0  0  0  0  0  0  0  0  0
   21.4054   20.2656   21.5524 H   0  0  0  0  0  0  0  0  0  0  0  0
   21.7803   18.6497   20.9808 H   0  0  0  0  0  0  0  0  0  0  0  0
   19.9445   19.4652   20.1648 C   0  0  0  0  0  0  0  0  0  0  0  0
   20.4701   19.9066   19.3069 H   0  0  0  0  0  0  0  0  0  0  0  0
   19.1660   20.1865   20.4463 H   0  0  0  0  0  0  0  0  0  0  0  0
   19.2900   18.1403   19.7174 C   0  0  0  0  0  0  0  0  0  0  0  0
   18.6576   17.7207   20.5099 H   0  0  0  0  0  0  0  0  0  0  0  0
   20.0518   17.3955   19.4529 H   0  0  0  0  0  0  0  0  0  0  0  0
   18.6554   18.3033   18.8368 H   0  0  0  0  0  0  0  0  0  0  0  0
  1  2  1  0  0  0  0
  1  3  2  0  0  0  0
  1  4  1  0  0  0  0
  4  5  1  0  0  0  0
  4  6  1  0  0  0  0
  4  7  1  0  0  0  0
  7  8  1  0  0  0  0
  7  9  1  0  0  0  0
  7 10  1  0  0  0  0
 10 11  1  0  0  0  0
 10 12  1  0  0  0  0
 10 13  1  0  0  0  0
 13 14  1  0  0  0  0
 13 15  1  0  0  0  0
 13 16  1  0  0  0  0
 16 17  1  0  0  0  0
 16 18  1  0  0  0  0
 16 19  1  0  0  0  0
 19 20  1  0  0  0  0
 19 21  1  0  0  0  0
 19 22  1  0  0  0  0
M  END
> <VM2 Rank>
32

> <Conf_Id>
159

> <Probability>
0.11

> <Sum Probability>
98.84

> <Delta G>
3.409

> <G>
-13.590

> <E>
-33.883

> <-TS>
20.293

> <U+W>
-51.768

> <U>
9.546

> <W>
-61.314

> <W(PB)>
-63.555

> <W(SA)>
2.241

> <Valence>
8.350

> <Coulomb>
0.448

> <VdW>
0.749

> <VdW6>
-8.871

> <VdW12>
9.620

> <Bond>
0.198

> <Angle>
3.089

> <Pdih>
5.062

> <Idih>
0.001

> <Tether>
0.000

$$$$
VeraChem MOL file


 22 21  0  0  0  0  0  0  0  0999 V2000     
   20.1471   19.2038   25.4604 C   0  0  0  0  0  0  0  0  0  0  0  0
   20.7299   20.2667   25.5467 O   0  5  0  0  0  0  0  0  0  0  0  0
   20.6164   18.1474   25.8357 O   0  0  0  0  0  0  0  0  0  0  0  0
   18.7382   19.2016   24.8737 C   0  0  0  0  0  0  0  0  0  0  0  0
   18.1926   20.0380   25.3263 H   0  0  0  0  0  0  0  0  0  0  0  0
   18.2290   18.2828   25.1886 H   0  0  0  0  0  0  0  0  0  0  0  0
   18.6998   19.3338   23.3291 C   0  0  0  0  0  0  0  0  0  0  0  0
   17.6575   19.4576   23.0061 H   0  0  0  0  0  0  0  0  0  0  0  0
   19.2346   20.2474   23.0371 H   0  0  0  0  0  0  0  0  0  0  0  0
   19.3138   18.1065   22.6144 C   0  0  0  0  0  0  0  0  0  0  0  0
   18.8208   17.1962   22.9817 H   0  0  0  0  0  0  0  0  0  0  0  0
   20.3731   18.0070   22.8862 H   0  0  0  0  0  0  0  0  0  0  0  0
   19.1684   18.1530   21.0726 C   0  0  0  0  0  0  0  0  0  0  0  0
   19.5854   17.2278   20.6520 H   0  0  0  0  0  0  0  0  0  0  0  0
   18.1005   18.1483   20.8154 H   0  0  0  0  0  0  0  0  0  0  0  0
   19.8423   19.3640   20.3811 C   0  0  0  0  0  0  0  0  0  0  0  0
   19.3659   20.2987   20.7052 H   0  0  0  0  0  0  0  0  0  0  0  0
   19.6645   19.2924   19.2993 H   0  0  0  0  0  0  0  0  0  0  0  0
   21.3640   19.4422   20.6304 C   0  0  0  0  0  0  0  0  0  0  0  0
   21.5849   19.6316   21.6887 H   0  0  0  0  0  0  0  0  0  0  0  0
   21.8077   20.2591   20.0467 H   0  0  0  0  0  0  0  0  0  0  0  0
   21.8590   18.5077   20.3363 H   0  0  0  0  0  0  0  0  0  0  0  0
  1  2  1  0  0  0  0
  1  3  2  0  0  0  0
  1  4  1  0  0  0  0
  4  5  1  0  0  0  0
  4  6  1  0  0  0  0
  4  7  1  0  0  0  0
  7  8  1  0  0  0  0
  7  9  1  0  0  0  0
  7 10  1  0  0  0  0
 10 11  1  0  0  0  0
 10 12  1  0  0  0  0
 10 13  1  0  0  0  0
 13 14  1  0  0  0  0
 13 15  1  0  0  0  0
 13 16  1  0  0  0  0
 16 17  1  0  0  0  0
 16 18  1  0  0  0  0
 16 19  1  0  0  0  0
 19 20  1  0  0  0  0
 19 21  1  0  0  0  0
 19 22  1  0  0  0  0
M  END
> <VM2 Rank>
33

> <Conf_Id>
342

> <Probability>
0.08

> <Sum Probability>
98.92

> <Delta G>
3.578

> <G>
-13.421

> <E>
-33.724

> <-TS>
20.303

> <U+W>
-51.609

> <U>
10.394

> <W>
-62.003

> <W(PB)>
-64.205

> <W(SA)>
2.203

> <Valence>
8.284

> <Coulomb>
1.521

> <VdW>
0.589

> <VdW6>
-9.071

> <VdW12>
9.660

> <Bond>
0.194

> <Angle>
3.031

> <Pdih>
5.059

> <Idih>
0.001

> <Tether>
0.000

$$$$
VeraChem MOL file


 22 21  0  0  0  0  0  0  0  0999 V2000     
   19.6891   19.4244   25.4459 C   0  0  0  0  0  0  0  0  0  0  0  0
   20.1528   20.5447   25.5283 O   0  5  0  0  0  0  0  0  0  0  0  0
   18.5527   19.1415   25.7707 O   0  0  0  0  0  0  0  0  0  0  0  0
   20.5939   18.3077   24.9325 C   0  0  0  0  0  0  0  0  0  0  0  0
   20.1765   17.3446   25.2503 H   0  0  0  0  0  0  0  0  0  0  0  0
   21.5634   18.4141   25.4331 H   0  0  0  0  0  0  0  0  0  0  0  0
   20.8004   18.3218   23.3957 C   0  0  0  0  0  0  0  0  0  0  0  0
   21.1968   19.3021   23.0993 H   0  0  0  0  0  0  0  0  0  0  0  0
   21.5620   17.5765   23.1299 H   0  0  0  0  0  0  0  0  0  0  0  0
   19.4963   18.0186   22.6202 C   0  0  0  0  0  0  0  0  0  0  0  0
   18.7459   18.7911   22.8345 H   0  0  0  0  0  0  0  0  0  0  0  0
   19.0727   17.0749   22.9897 H   0  0  0  0  0  0  0  0  0  0  0  0
   19.7023   17.8958   21.0895 C   0  0  0  0  0  0  0  0  0  0  0  0
   20.3759   17.0519   20.8875 H   0  0  0  0  0  0  0  0  0  0  0  0
   18.7417   17.6344   20.6253 H   0  0  0  0  0  0  0  0  0  0  0  0
   20.2652   19.1602   20.3944 C   0  0  0  0  0  0  0  0  0  0  0  0
   20.3755   18.9497   19.3218 H   0  0  0  0  0  0  0  0  0  0  0  0
   21.2752   19.3787   20.7657 H   0  0  0  0  0  0  0  0  0  0  0  0
   19.3673   20.4043   20.5669 C   0  0  0  0  0  0  0  0  0  0  0  0
   18.3443   20.2011   20.2246 H   0  0  0  0  0  0  0  0  0  0  0  0
   19.7598   21.2458   19.9816 H   0  0  0  0  0  0  0  0  0  0  0  0
   19.3234   20.7213   21.6167 H   0  0  0  0  0  0  0  0  0  0  0  0
  1  2  1  0  0  0  0
  1  3  2  0  0  0  0
  1  4  1  0  0  0  0
  4  5  1  0  0  0  0
  4  6  1  0  0  0  0
  4  7  1  0  0  0  0
  7  8  1  0  0  0  0
  7  9  1  0  0  0  0
  7 10  1  0  0  0  0
 10 11  1  0  0  0  0
 10 12  1  0  0  0  0
 10 13  1  0  0  0  0
 13 14  1  0  0  0  0
 13 15  1  0  0  0  0
 13 16  1  0  0  0  0
 16 17  1  0  0  0  0
 16 18  1  0  0  0  0
 16 19  1  0  0  0  0
 19 20  1  0  0  0  0
 19 21  1  0  0  0  0
 19 22  1  0  0  0  0
M  END
> <VM2 Rank>
34

> <Conf_Id>
67

> <Probability>
0.08

> <Sum Probability>
99.00

> <Delta G>
3.580

> <G>
-13.419

> <E>
-33.722

> <-TS>
20.303

> <U+W>
-51.606

> <U>
10.393

> <W>
-62.000

> <W(PB)>
-64.214

> <W(SA)>
2.214

> <Valence>
8.284

> <Coulomb>
1.520

> <VdW>
0.589

> <VdW6>
-9.071

> <VdW12>
9.660

> <Bond>
0.194

> <Angle>
3.031

> <Pdih>
5.059

> <Idih>
0.001

> <Tether>
0.000

$$$$
VeraChem MOL file


 22 21  0  0  0  0  0  0  0  0999 V2000     
   19.9080   18.8057   25.4498 C   0  0  0  0  0  0  0  0  0  0  0  0
   19.7496   19.5643   26.3862 O   0  5  0  0  0  0  0  0  0  0  0  0
   20.8541   18.0493   25.3510 O   0  0  0  0  0  0  0  0  0  0  0  0
   18.8448   18.7831   24.3552 C   0  0  0  0  0  0  0  0  0  0  0  0
   17.8711   18.6810   24.8482 H   0  0  0  0  0  0  0  0  0  0  0  0
   18.9825   17.8799   23.7497 H   0  0  0  0  0  0  0  0  0  0  0  0
   18.8347   20.0483   23.4544 C   0  0  0  0  0  0  0  0  0  0  0  0
   17.9981   19.9820   22.7470 H   0  0  0  0  0  0  0  0  0  0  0  0
   18.6282   20.9257   24.0827 H   0  0  0  0  0  0  0  0  0  0  0  0
   20.1553   20.2937   22.6797 C   0  0  0  0  0  0  0  0  0  0  0  0
   20.9607   20.4922   23.4001 H   0  0  0  0  0  0  0  0  0  0  0  0
   20.0500   21.2113   22.0851 H   0  0  0  0  0  0  0  0  0  0  0  0
   20.5995   19.1396   21.7464 C   0  0  0  0  0  0  0  0  0  0  0  0
   21.5484   19.4250   21.2724 H   0  0  0  0  0  0  0  0  0  0  0  0
   20.8161   18.2413   22.3399 H   0  0  0  0  0  0  0  0  0  0  0  0
   19.5691   18.8045   20.6447 C   0  0  0  0  0  0  0  0  0  0  0  0
   19.3209   19.7140   20.0806 H   0  0  0  0  0  0  0  0  0  0  0  0
   18.6368   18.4433   21.0983 H   0  0  0  0  0  0  0  0  0  0  0  0
   20.1049   17.7305   19.6768 C   0  0  0  0  0  0  0  0  0  0  0  0
   21.0193   18.0738   19.1755 H   0  0  0  0  0  0  0  0  0  0  0  0
   19.3604   17.5007   18.9035 H   0  0  0  0  0  0  0  0  0  0  0  0
   20.3358   16.8003   20.2123 H   0  0  0  0  0  0  0  0  0  0  0  0
  1  2  1  0  0  0  0
  1  3  2  0  0  0  0
  1  4  1  0  0  0  0
  4  5  1  0  0  0  0
  4  6  1  0  0  0  0
  4  7  1  0  0  0  0
  7  8  1  0  0  0  0
  7  9  1  0  0  0  0
  7 10  1  0  0  0  0
 10 11  1  0  0  0  0
 10 12  1  0  0  0  0
 10 13  1  0  0  0  0
 13 14  1  0  0  0  0
 13 15  1  0  0  0  0
 13 16  1  0  0  0  0
 16 17  1  0  0  0  0
 16 18  1  0  0  0  0
 16 19  1  0  0  0  0
 19 20  1  0  0  0  0
 19 21  1  0  0  0  0
 19 22  1  0  0  0  0
M  END
> <VM2 Rank>
35

> <Conf_Id>
463

> <Probability>
0.08

> <Sum Probability>
99.07

> <Delta G>
3.589

> <G>
-13.409

> <E>
-33.815

> <-TS>
20.406

> <U+W>
-51.700

> <U>
10.054

> <W>
-61.754

> <W(PB)>
-63.978

> <W(SA)>
2.224

> <Valence>
8.321

> <Coulomb>
1.289

> <VdW>
0.445

> <VdW6>
-9.398

> <VdW12>
9.842

> <Bond>
0.210

> <Angle>
3.153

> <Pdih>
4.957

> <Idih>
0.001

> <Tether>
0.000

$$$$
VeraChem MOL file


 22 21  0  0  0  0  0  0  0  0999 V2000     
   20.0209   18.9478   25.5173 C   0  0  0  0  0  0  0  0  0  0  0  0
   20.3772   19.8725   26.2210 O   0  5  0  0  0  0  0  0  0  0  0  0
   20.6453   17.9117   25.4021 O   0  0  0  0  0  0  0  0  0  0  0  0
   18.7022   19.0861   24.7616 C   0  0  0  0  0  0  0  0  0  0  0  0
   17.9454   19.4114   25.4849 H   0  0  0  0  0  0  0  0  0  0  0  0
   18.3907   18.0947   24.4139 H   0  0  0  0  0  0  0  0  0  0  0  0
   18.7490   20.0939   23.5805 C   0  0  0  0  0  0  0  0  0  0  0  0
   17.7488   20.1721   23.1334 H   0  0  0  0  0  0  0  0  0  0  0  0
   18.9860   21.0901   23.9789 H   0  0  0  0  0  0  0  0  0  0  0  0
   19.7756   19.7445   22.4748 C   0  0  0  0  0  0  0  0  0  0  0  0
   20.7848   19.6988   22.9065 H   0  0  0  0  0  0  0  0  0  0  0  0
   19.7861   20.5684   21.7502 H   0  0  0  0  0  0  0  0  0  0  0  0
   19.4640   18.4166   21.7418 C   0  0  0  0  0  0  0  0  0  0  0  0
   19.4790   17.5913   22.4654 H   0  0  0  0  0  0  0  0  0  0  0  0
   18.4483   18.4508   21.3252 H   0  0  0  0  0  0  0  0  0  0  0  0
   20.4738   18.0834   20.6187 C   0  0  0  0  0  0  0  0  0  0  0  0
   20.2681   17.0684   20.2516 H   0  0  0  0  0  0  0  0  0  0  0  0
   21.4925   18.0635   21.0301 H   0  0  0  0  0  0  0  0  0  0  0  0
   20.4120   19.0625   19.4261 C   0  0  0  0  0  0  0  0  0  0  0  0
   20.7293   20.0714   19.7175 H   0  0  0  0  0  0  0  0  0  0  0  0
   19.3937   19.1245   19.0209 H   0  0  0  0  0  0  0  0  0  0  0  0
   21.0765   18.7264   18.6196 H   0  0  0  0  0  0  0  0  0  0  0  0
  1  2  1  0  0  0  0
  1  3  2  0  0  0  0
  1  4  1  0  0  0  0
  4  5  1  0  0  0  0
  4  6  1  0  0  0  0
  4  7  1  0  0  0  0
  7  8  1  0  0  0  0
  7  9  1  0  0  0  0
  7 10  1  0  0  0  0
 10 11  1  0  0  0  0
 10 12  1  0  0  0  0
 10 13  1  0  0  0  0
 13 14  1  0  0  0  0
 13 15  1  0  0  0  0
 13 16  1  0  0  0  0
 16 17  1  0  0  0  0
 16 18  1  0  0  0  0
 16 19  1  0  0  0  0
 19 20  1  0  0  0  0
 19 21  1  0  0  0  0
 19 22  1  0  0  0  0
M  END
> <VM2 Rank>
36

> <Conf_Id>
264

> <Probability>
0.08

> <Sum Probability>
99.15

> <Delta G>
3.609

> <G>
-13.390

> <E>
-33.472

> <-TS>
20.082

> <U+W>
-51.357

> <U>
10.427

> <W>
-61.784

> <W(PB)>
-64.014

> <W(SA)>
2.230

> <Valence>
8.445

> <Coulomb>
1.306

> <VdW>
0.676

> <VdW6>
-8.928

> <VdW12>
9.604

> <Bond>
0.209

> <Angle>
3.066

> <Pdih>
5.169

> <Idih>
0.001

> <Tether>
0.000

$$$$
VeraChem MOL file


 22 21  0  0  0  0  0  0  0  0999 V2000     
   19.6729   18.8804   25.5139 C   0  0  0  0  0  0  0  0  0  0  0  0
   18.9843   19.6027   26.2077 O   0  5  0  0  0  0  0  0  0  0  0  0
   19.4830   17.6864   25.3912 O   0  0  0  0  0  0  0  0  0  0  0  0
   20.8584   19.5037   24.7822 C   0  0  0  0  0  0  0  0  0  0  0  0
   21.5237   18.7016   24.4438 H   0  0  0  0  0  0  0  0  0  0  0  0
   21.4255   20.0855   25.5181 H   0  0  0  0  0  0  0  0  0  0  0  0
   20.4604   20.4255   23.5968 C   0  0  0  0  0  0  0  0  0  0  0  0
   19.8615   21.2598   23.9872 H   0  0  0  0  0  0  0  0  0  0  0  0
   21.3672   20.8728   23.1678 H   0  0  0  0  0  0  0  0  0  0  0  0
   19.6589   19.7220   22.4736 C   0  0  0  0  0  0  0  0  0  0  0  0
   19.3552   20.4851   21.7459 H   0  0  0  0  0  0  0  0  0  0  0  0
   18.7318   19.3018   22.8869 H   0  0  0  0  0  0  0  0  0  0  0  0
   20.4568   18.6087   21.7516 C   0  0  0  0  0  0  0  0  0  0  0  0
   21.3941   19.0207   21.3538 H   0  0  0  0  0  0  0  0  0  0  0  0
   20.7371   17.8348   22.4778 H   0  0  0  0  0  0  0  0  0  0  0  0
   19.6653   17.9270   20.6111 C   0  0  0  0  0  0  0  0  0  0  0  0
   18.7198   17.5275   21.0034 H   0  0  0  0  0  0  0  0  0  0  0  0
   20.2412   17.0630   20.2519 H   0  0  0  0  0  0  0  0  0  0  0  0
   19.3801   18.8626   19.4160 C   0  0  0  0  0  0  0  0  0  0  0  0
   18.7045   19.6796   19.6975 H   0  0  0  0  0  0  0  0  0  0  0  0
   18.9040   18.3058   18.5986 H   0  0  0  0  0  0  0  0  0  0  0  0
   20.3095   19.3009   19.0297 H   0  0  0  0  0  0  0  0  0  0  0  0
  1  2  1  0  0  0  0
  1  3  2  0  0  0  0
  1  4  1  0  0  0  0
  4  5  1  0  0  0  0
  4  6  1  0  0  0  0
  4  7  1  0  0  0  0
  7  8  1  0  0  0  0
  7  9  1  0  0  0  0
  7 10  1  0  0  0  0
 10 11  1  0  0  0  0
 10 12  1  0  0  0  0
 10 13  1  0  0  0  0
 13 14  1  0  0  0  0
 13 15  1  0  0  0  0
 13 16  1  0  0  0  0
 16 17  1  0  0  0  0
 16 18  1  0  0  0  0
 16 19  1  0  0  0  0
 19 20  1  0  0  0  0
 19 21  1  0  0  0  0
 19 22  1  0  0  0  0
M  END
> <VM2 Rank>
37

> <Conf_Id>
247

> <Probability>
0.07

> <Sum Probability>
99.22

> <Delta G>
3.612

> <G>
-13.387

> <E>
-33.469

> <-TS>
20.082

> <U+W>
-51.354

> <U>
10.427

> <W>
-61.781

> <W(PB)>
-64.012

> <W(SA)>
2.231

> <Valence>
8.446

> <Coulomb>
1.305

> <VdW>
0.676

> <VdW6>
-8.928

> <VdW12>
9.604

> <Bond>
0.209

> <Angle>
3.066

> <Pdih>
5.170

> <Idih>
0.001

> <Tether>
0.000

$$$$
VeraChem MOL file


 22 21  0  0  0  0  0  0  0  0999 V2000     
   20.1428   19.0123   25.4414 C   0  0  0  0  0  0  0  0  0  0  0  0
   19.4497   19.3006   26.3974 O   0  5  0  0  0  0  0  0  0  0  0  0
   20.7684   17.9741   25.3541 O   0  0  0  0  0  0  0  0  0  0  0  0
   20.2554   20.0239   24.3042 C   0  0  0  0  0  0  0  0  0  0  0  0
   21.1086   19.7499   23.6730 H   0  0  0  0  0  0  0  0  0  0  0  0
   20.5001   20.9936   24.7531 H   0  0  0  0  0  0  0  0  0  0  0  0
   18.9661   20.1639   23.4496 C   0  0  0  0  0  0  0  0  0  0  0  0
   18.1483   20.5034   24.1000 H   0  0  0  0  0  0  0  0  0  0  0  0
   19.1091   20.9592   22.7068 H   0  0  0  0  0  0  0  0  0  0  0  0
   18.5241   18.8587   22.7386 C   0  0  0  0  0  0  0  0  0  0  0  0
   17.6038   19.0592   22.1735 H   0  0  0  0  0  0  0  0  0  0  0  0
   18.2548   18.1116   23.4978 H   0  0  0  0  0  0  0  0  0  0  0  0
   19.5737   18.2371   21.7834 C   0  0  0  0  0  0  0  0  0  0  0  0
   20.4608   17.9287   22.3526 H   0  0  0  0  0  0  0  0  0  0  0  0
   19.1514   17.3162   21.3590 H   0  0  0  0  0  0  0  0  0  0  0  0
   19.9913   19.1759   20.6293 C   0  0  0  0  0  0  0  0  0  0  0  0
   20.4859   20.0700   21.0312 H   0  0  0  0  0  0  0  0  0  0  0  0
   19.0982   19.5183   20.0886 H   0  0  0  0  0  0  0  0  0  0  0  0
   20.9484   18.4726   19.6460 C   0  0  0  0  0  0  0  0  0  0  0  0
   21.2387   19.1532   18.8352 H   0  0  0  0  0  0  0  0  0  0  0  0
   20.4718   17.5923   19.1952 H   0  0  0  0  0  0  0  0  0  0  0  0
   21.8629   18.1438   20.1567 H   0  0  0  0  0  0  0  0  0  0  0  0
  1  2  1  0  0  0  0
  1  3  2  0  0  0  0
  1  4  1  0  0  0  0
  4  5  1  0  0  0  0
  4  6  1  0  0  0  0
  4  7  1  0  0  0  0
  7  8  1  0  0  0  0
  7  9  1  0  0  0  0
  7 10  1  0  0  0  0
 10 11  1  0  0  0  0
 10 12  1  0  0  0  0
 10 13  1  0  0  0  0
 13 14  1  0  0  0  0
 13 15  1  0  0  0  0
 13 16  1  0  0  0  0
 16 17  1  0  0  0  0
 16 18  1  0  0  0  0
 16 19  1  0  0  0  0
 19 20  1  0  0  0  0
 19 21  1  0  0  0  0
 19 22  1  0  0  0  0
M  END
> <VM2 Rank>
38

> <Conf_Id>
115

> <Probability>
0.07

> <Sum Probability>
99.30

> <Delta G>
3.617

> <G>
-13.381

> <E>
-33.787

> <-TS>
20.405

> <U+W>
-51.672

> <U>
10.053

> <W>
-61.725

> <W(PB)>
-63.943

> <W(SA)>
2.217

> <Valence>
8.321

> <Coulomb>
1.288

> <VdW>
0.445

> <VdW6>
-9.397

> <VdW12>
9.842

> <Bond>
0.210

> <Angle>
3.152

> <Pdih>
4.957

> <Idih>
0.001

> <Tether>
0.000

$$$$
VeraChem MOL file


 22 21  0  0  0  0  0  0  0  0999 V2000     
   19.5613   19.4553   25.6327 C   0  0  0  0  0  0  0  0  0  0  0  0
   20.2026   20.4411   25.9385 O   0  5  0  0  0  0  0  0  0  0  0  0
   18.9724   18.7599   26.4366 O   0  0  0  0  0  0  0  0  0  0  0  0
   19.5116   19.0556   24.1624 C   0  0  0  0  0  0  0  0  0  0  0  0
   19.5362   19.9758   23.5681 H   0  0  0  0  0  0  0  0  0  0  0  0
   18.5487   18.5658   23.9745 H   0  0  0  0  0  0  0  0  0  0  0  0
   20.6777   18.1200   23.7549 C   0  0  0  0  0  0  0  0  0  0  0  0
   21.6294   18.6559   23.8746 H   0  0  0  0  0  0  0  0  0  0  0  0
   20.7114   17.2740   24.4553 H   0  0  0  0  0  0  0  0  0  0  0  0
   20.5743   17.5608   22.3136 C   0  0  0  0  0  0  0  0  0  0  0  0
   19.6732   16.9403   22.2133 H   0  0  0  0  0  0  0  0  0  0  0  0
   21.4233   16.8804   22.1615 H   0  0  0  0  0  0  0  0  0  0  0  0
   20.6128   18.6370   21.1991 C   0  0  0  0  0  0  0  0  0  0  0  0
   21.1769   19.5152   21.5418 H   0  0  0  0  0  0  0  0  0  0  0  0
   21.1694   18.2315   20.3430 H   0  0  0  0  0  0  0  0  0  0  0  0
   19.2096   19.0574   20.7041 C   0  0  0  0  0  0  0  0  0  0  0  0
   18.6061   19.4423   21.5348 H   0  0  0  0  0  0  0  0  0  0  0  0
   18.6799   18.1784   20.3117 H   0  0  0  0  0  0  0  0  0  0  0  0
   19.2976   20.1320   19.6020 C   0  0  0  0  0  0  0  0  0  0  0  0
   18.2947   20.4146   19.2563 H   0  0  0  0  0  0  0  0  0  0  0  0
   19.8628   19.7623   18.7365 H   0  0  0  0  0  0  0  0  0  0  0  0
   19.7948   21.0369   19.9753 H   0  0  0  0  0  0  0  0  0  0  0  0
  1  2  1  0  0  0  0
  1  3  2  0  0  0  0
  1  4  1  0  0  0  0
  4  5  1  0  0  0  0
  4  6  1  0  0  0  0
  4  7  1  0  0  0  0
  7  8  1  0  0  0  0
  7  9  1  0  0  0  0
  7 10  1  0  0  0  0
 10 11  1  0  0  0  0
 10 12  1  0  0  0  0
 10 13  1  0  0  0  0
 13 14  1  0  0  0  0
 13 15  1  0  0  0  0
 13 16  1  0  0  0  0
 16 17  1  0  0  0  0
 16 18  1  0  0  0  0
 16 19  1  0  0  0  0
 19 20  1  0  0  0  0
 19 21  1  0  0  0  0
 19 22  1  0  0  0  0
M  END
> <VM2 Rank>
39

> <Conf_Id>
160

> <Probability>
0.06

> <Sum Probability>
99.36

> <Delta G>
3.779

> <G>
-13.220

> <E>
-33.159

> <-TS>
19.939

> <U+W>
-51.044

> <U>
10.045

> <W>
-61.089

> <W(PB)>
-63.359

> <W(SA)>
2.270

> <Valence>
10.100

> <Coulomb>
-0.883

> <VdW>
0.828

> <VdW6>
-8.177

> <VdW12>
9.005

> <Bond>
0.182

> <Angle>
2.988

> <Pdih>
6.930

> <Idih>
0.001

> <Tether>
0.000

$$$$
VeraChem MOL file


 22 21  0  0  0  0  0  0  0  0999 V2000     
   20.0534   18.7869   25.3436 C   0  0  0  0  0  0  0  0  0  0  0  0
   19.1666   18.4786   26.1156 O   0  5  0  0  0  0  0  0  0  0  0  0
   20.9815   18.0557   25.0599 O   0  0  0  0  0  0  0  0  0  0  0  0
   20.0159   20.1821   24.7257 C   0  0  0  0  0  0  0  0  0  0  0  0
   20.9910   20.3911   24.2710 H   0  0  0  0  0  0  0  0  0  0  0  0
   19.8967   20.8984   25.5469 H   0  0  0  0  0  0  0  0  0  0  0  0
   18.8743   20.3897   23.6932 C   0  0  0  0  0  0  0  0  0  0  0  0
   17.9100   20.2393   24.1980 H   0  0  0  0  0  0  0  0  0  0  0  0
   18.8830   21.4336   23.3519 H   0  0  0  0  0  0  0  0  0  0  0  0
   18.9458   19.4506   22.4642 C   0  0  0  0  0  0  0  0  0  0  0  0
   18.0639   19.6319   21.8350 H   0  0  0  0  0  0  0  0  0  0  0  0
   18.8793   18.4072   22.7996 H   0  0  0  0  0  0  0  0  0  0  0  0
   20.2237   19.6503   21.6137 C   0  0  0  0  0  0  0  0  0  0  0  0
   20.3494   20.7202   21.3992 H   0  0  0  0  0  0  0  0  0  0  0  0
   21.1067   19.3385   22.1874 H   0  0  0  0  0  0  0  0  0  0  0  0
   20.1930   18.8791   20.2737 C   0  0  0  0  0  0  0  0  0  0  0  0
   21.0826   19.1515   19.6894 H   0  0  0  0  0  0  0  0  0  0  0  0
   19.3235   19.1970   19.6819 H   0  0  0  0  0  0  0  0  0  0  0  0
   20.1658   17.3459   20.4544 C   0  0  0  0  0  0  0  0  0  0  0  0
   21.0096   17.0086   21.0705 H   0  0  0  0  0  0  0  0  0  0  0  0
   20.2340   16.8426   19.4814 H   0  0  0  0  0  0  0  0  0  0  0  0
   19.2362   17.0165   20.9353 H   0  0  0  0  0  0  0  0  0  0  0  0
  1  2  1  0  0  0  0
  1  3  2  0  0  0  0
  1  4  1  0  0  0  0
  4  5  1  0  0  0  0
  4  6  1  0  0  0  0
  4  7  1  0  0  0  0
  7  8  1  0  0  0  0
  7  9  1  0  0  0  0
  7 10  1  0  0  0  0
 10 11  1  0  0  0  0
 10 12  1  0  0  0  0
 10 13  1  0  0  0  0
 13 14  1  0  0  0  0
 13 15  1  0  0  0  0
 13 16  1  0  0  0  0
 16 17  1  0  0  0  0
 16 18  1  0  0  0  0
 16 19  1  0  0  0  0
 19 20  1  0  0  0  0
 19 21  1  0  0  0  0
 19 22  1  0  0  0  0
M  END
> <VM2 Rank>
40

> <Conf_Id>
573

> <Probability>
0.06

> <Sum Probability>
99.41

> <Delta G>
3.789

> <G>
-13.209

> <E>
-33.371

> <-TS>
20.162

> <U+W>
-51.256

> <U>
10.893

> <W>
-62.149

> <W(PB)>
-64.367

> <W(SA)>
2.218

> <Valence>
8.348

> <Coulomb>
2.011

> <VdW>
0.534

> <VdW6>
-9.124

> <VdW12>
9.658

> <Bond>
0.201

> <Angle>
2.939

> <Pdih>
5.207

> <Idih>
0.002

> <Tether>
0.000

$$$$
VeraChem MOL file


 22 21  0  0  0  0  0  0  0  0999 V2000     
   20.2733   18.9625   25.2360 C   0  0  0  0  0  0  0  0  0  0  0  0
   20.7592   20.0454   25.4982 O   0  5  0  0  0  0  0  0  0  0  0  0
   20.9149   17.9310   25.1999 O   0  0  0  0  0  0  0  0  0  0  0  0
   18.7649   18.8804   25.0092 C   0  0  0  0  0  0  0  0  0  0  0  0
   18.2947   19.1807   25.9527 H   0  0  0  0  0  0  0  0  0  0  0  0
   18.4863   17.8333   24.8392 H   0  0  0  0  0  0  0  0  0  0  0  0
   18.2161   19.7763   23.8632 C   0  0  0  0  0  0  0  0  0  0  0  0
   17.1401   19.9197   24.0309 H   0  0  0  0  0  0  0  0  0  0  0  0
   18.6667   20.7769   23.9214 H   0  0  0  0  0  0  0  0  0  0  0  0
   18.3978   19.1939   22.4396 C   0  0  0  0  0  0  0  0  0  0  0  0
   17.8406   19.8286   21.7370 H   0  0  0  0  0  0  0  0  0  0  0  0
   17.9384   18.1975   22.3864 H   0  0  0  0  0  0  0  0  0  0  0  0
   19.8696   19.1128   21.9750 C   0  0  0  0  0  0  0  0  0  0  0  0
   20.3580   20.0854   22.1247 H   0  0  0  0  0  0  0  0  0  0  0  0
   20.4141   18.3822   22.5863 H   0  0  0  0  0  0  0  0  0  0  0  0
   19.9775   18.7029   20.4910 C   0  0  0  0  0  0  0  0  0  0  0  0
   19.4436   19.4311   19.8648 H   0  0  0  0  0  0  0  0  0  0  0  0
   19.4879   17.7310   20.3393 H   0  0  0  0  0  0  0  0  0  0  0  0
   21.4468   18.6138   20.0320 C   0  0  0  0  0  0  0  0  0  0  0  0
   21.9524   19.5819   20.1439 H   0  0  0  0  0  0  0  0  0  0  0  0
   21.5054   18.3205   18.9758 H   0  0  0  0  0  0  0  0  0  0  0  0
   21.9976   17.8694   20.6220 H   0  0  0  0  0  0  0  0  0  0  0  0
  1  2  1  0  0  0  0
  1  3  2  0  0  0  0
  1  4  1  0  0  0  0
  4  5  1  0  0  0  0
  4  6  1  0  0  0  0
  4  7  1  0  0  0  0
  7  8  1  0  0  0  0
  7  9  1  0  0  0  0
  7 10  1  0  0  0  0
 10 11  1  0  0  0  0
 10 12  1  0  0  0  0
 10 13  1  0  0  0  0
 13 14  1  0  0  0  0
 13 15  1  0  0  0  0
 13 16  1  0  0  0  0
 16 17  1  0  0  0  0
 16 18  1  0  0  0  0
 16 19  1  0  0  0  0
 19 20  1  0  0  0  0
 19 21  1  0  0  0  0
 19 22  1  0  0  0  0
M  END
> <VM2 Rank>
41

> <Conf_Id>
139

> <Probability>
0.06

> <Sum Probability>
99.47

> <Delta G>
3.793

> <G>
-13.206

> <E>
-33.394

> <-TS>
20.188

> <U+W>
-51.279

> <U>
11.237

> <W>
-62.516

> <W(PB)>
-64.781

> <W(SA)>
2.265

> <Valence>
9.029

> <Coulomb>
1.668

> <VdW>
0.540

> <VdW6>
-8.824

> <VdW12>
9.364

> <Bond>
0.186

> <Angle>
3.195

> <Pdih>
5.641

> <Idih>
0.007

> <Tether>
0.000

$$$$
VeraChem MOL file


 22 21  0  0  0  0  0  0  0  0999 V2000     
   20.0180   19.4378   25.3187 C   0  0  0  0  0  0  0  0  0  0  0  0
   20.8627   20.2414   24.9762 O   0  5  0  0  0  0  0  0  0  0  0  0
   19.0996   19.7064   26.0683 O   0  0  0  0  0  0  0  0  0  0  0  0
   20.1344   18.0037   24.8093 C   0  0  0  0  0  0  0  0  0  0  0  0
   20.0900   17.3435   25.6833 H   0  0  0  0  0  0  0  0  0  0  0  0
   21.1282   17.8674   24.3678 H   0  0  0  0  0  0  0  0  0  0  0  0
   19.0263   17.5953   23.8004 C   0  0  0  0  0  0  0  0  0  0  0  0
   19.1495   16.5355   23.5398 H   0  0  0  0  0  0  0  0  0  0  0  0
   18.0493   17.6785   24.2962 H   0  0  0  0  0  0  0  0  0  0  0  0
   19.0008   18.4399   22.5029 C   0  0  0  0  0  0  0  0  0  0  0  0
   18.8202   19.4926   22.7579 H   0  0  0  0  0  0  0  0  0  0  0  0
   18.1464   18.1166   21.8930 H   0  0  0  0  0  0  0  0  0  0  0  0
   20.2964   18.3156   21.6650 C   0  0  0  0  0  0  0  0  0  0  0  0
   21.1380   18.7643   22.2096 H   0  0  0  0  0  0  0  0  0  0  0  0
   20.5383   17.2524   21.5324 H   0  0  0  0  0  0  0  0  0  0  0  0
   20.1879   18.9743   20.2701 C   0  0  0  0  0  0  0  0  0  0  0  0
   19.3606   18.5197   19.7078 H   0  0  0  0  0  0  0  0  0  0  0  0
   21.1043   18.7562   19.7047 H   0  0  0  0  0  0  0  0  0  0  0  0
   19.9938   20.5047   20.3332 C   0  0  0  0  0  0  0  0  0  0  0  0
   20.7934   20.9777   20.9183 H   0  0  0  0  0  0  0  0  0  0  0  0
   19.0319   20.7672   20.7912 H   0  0  0  0  0  0  0  0  0  0  0  0
   20.0112   20.9366   19.3242 H   0  0  0  0  0  0  0  0  0  0  0  0
  1  2  1  0  0  0  0
  1  3  2  0  0  0  0
  1  4  1  0  0  0  0
  4  5  1  0  0  0  0
  4  6  1  0  0  0  0
  4  7  1  0  0  0  0
  7  8  1  0  0  0  0
  7  9  1  0  0  0  0
  7 10  1  0  0  0  0
 10 11  1  0  0  0  0
 10 12  1  0  0  0  0
 10 13  1  0  0  0  0
 13 14  1  0  0  0  0
 13 15  1  0  0  0  0
 13 16  1  0  0  0  0
 16 17  1  0  0  0  0
 16 18  1  0  0  0  0
 16 19  1  0  0  0  0
 19 20  1  0  0  0  0
 19 21  1  0  0  0  0
 19 22  1  0  0  0  0
M  END
> <VM2 Rank>
42

> <Conf_Id>
571

> <Probability>
0.05

> <Sum Probability>
99.52

> <Delta G>
3.825

> <G>
-13.174

> <E>
-33.337

> <-TS>
20.163

> <U+W>
-51.221

> <U>
10.893

> <W>
-62.114

> <W(PB)>
-64.331

> <W(SA)>
2.217

> <Valence>
8.348

> <Coulomb>
2.010

> <VdW>
0.534

> <VdW6>
-9.124

> <VdW12>
9.658

> <Bond>
0.201

> <Angle>
2.939

> <Pdih>
5.207

> <Idih>
0.002

> <Tether>
0.000

$$$$
VeraChem MOL file


 22 21  0  0  0  0  0  0  0  0999 V2000     
   20.2828   19.0826   25.6485 C   0  0  0  0  0  0  0  0  0  0  0  0
   20.7054   20.1814   25.9496 O   0  5  0  0  0  0  0  0  0  0  0  0
   20.0290   18.2141   26.4596 O   0  0  0  0  0  0  0  0  0  0  0  0
   20.0364   18.7846   24.1738 C   0  0  0  0  0  0  0  0  0  0  0  0
   20.2005   17.7128   24.0104 H   0  0  0  0  0  0  0  0  0  0  0  0
   20.7928   19.3270   23.5955 H   0  0  0  0  0  0  0  0  0  0  0  0
   18.6135   19.1863   23.7099 C   0  0  0  0  0  0  0  0  0  0  0  0
   17.8804   18.7363   24.3936 H   0  0  0  0  0  0  0  0  0  0  0  0
   18.4959   20.2744   23.8063 H   0  0  0  0  0  0  0  0  0  0  0  0
   18.2670   18.7525   22.2634 C   0  0  0  0  0  0  0  0  0  0  0  0
   17.2267   19.0478   22.0701 H   0  0  0  0  0  0  0  0  0  0  0  0
   18.2857   17.6570   22.1831 H   0  0  0  0  0  0  0  0  0  0  0  0
   19.1602   19.3872   21.1675 C   0  0  0  0  0  0  0  0  0  0  0  0
   18.5374   19.5908   20.2857 H   0  0  0  0  0  0  0  0  0  0  0  0
   19.5381   20.3617   21.5060 H   0  0  0  0  0  0  0  0  0  0  0  0
   20.3314   18.4780   20.7286 C   0  0  0  0  0  0  0  0  0  0  0  0
   19.9348   17.5303   20.3392 H   0  0  0  0  0  0  0  0  0  0  0  0
   20.9656   18.2239   21.5862 H   0  0  0  0  0  0  0  0  0  0  0  0
   21.1943   19.1523   19.6432 C   0  0  0  0  0  0  0  0  0  0  0  0
   20.5958   19.3834   18.7523 H   0  0  0  0  0  0  0  0  0  0  0  0
   22.0165   18.4924   19.3374 H   0  0  0  0  0  0  0  0  0  0  0  0
   21.6314   20.0883   20.0151 H   0  0  0  0  0  0  0  0  0  0  0  0
  1  2  1  0  0  0  0
  1  3  2  0  0  0  0
  1  4  1  0  0  0  0
  4  5  1  0  0  0  0
  4  6  1  0  0  0  0
  4  7  1  0  0  0  0
  7  8  1  0  0  0  0
  7  9  1  0  0  0  0
  7 10  1  0  0  0  0
 10 11  1  0  0  0  0
 10 12  1  0  0  0  0
 10 13  1  0  0  0  0
 13 14  1  0  0  0  0
 13 15  1  0  0  0  0
 13 16  1  0  0  0  0
 16 17  1  0  0  0  0
 16 18  1  0  0  0  0
 16 19  1  0  0  0  0
 19 20  1  0  0  0  0
 19 21  1  0  0  0  0
 19 22  1  0  0  0  0
M  END
> <VM2 Rank>
43

> <Conf_Id>
5

> <Probability>
0.05

> <Sum Probability>
99.57

> <Delta G>
3.830

> <G>
-13.168

> <E>
-33.108

> <-TS>
19.939

> <U+W>
-50.993

> <U>
10.045

> <W>
-61.037

> <W(PB)>
-63.303

> <W(SA)>
2.266

> <Valence>
10.100

> <Coulomb>
-0.883

> <VdW>
0.828

> <VdW6>
-8.177

> <VdW12>
9.005

> <Bond>
0.182

> <Angle>
2.988

> <Pdih>
6.930

> <Idih>
0.001

> <Tether>
0.000

$$$$
VeraChem MOL file


 22 21  0  0  0  0  0  0  0  0999 V2000     
   20.2561   19.2791   25.2239 C   0  0  0  0  0  0  0  0  0  0  0  0
   20.7830   20.3680   25.1063 O   0  5  0  0  0  0  0  0  0  0  0  0
   20.8548   18.2782   25.5662 O   0  0  0  0  0  0  0  0  0  0  0  0
   18.7486   19.1807   24.9975 C   0  0  0  0  0  0  0  0  0  0  0  0
   18.3596   20.1755   24.7490 H   0  0  0  0  0  0  0  0  0  0  0  0
   18.3095   18.9046   25.9632 H   0  0  0  0  0  0  0  0  0  0  0  0
   18.3044   18.1457   23.9258 C   0  0  0  0  0  0  0  0  0  0  0  0
   18.8601   17.2070   24.0585 H   0  0  0  0  0  0  0  0  0  0  0  0
   17.2495   17.9004   24.1084 H   0  0  0  0  0  0  0  0  0  0  0  0
   18.4282   18.6336   22.4610 C   0  0  0  0  0  0  0  0  0  0  0  0
   17.8638   19.5675   22.3336 H   0  0  0  0  0  0  0  0  0  0  0  0
   17.9459   17.8905   21.8114 H   0  0  0  0  0  0  0  0  0  0  0  0
   19.8845   18.8377   21.9856 C   0  0  0  0  0  0  0  0  0  0  0  0
   20.3441   19.6677   22.5369 H   0  0  0  0  0  0  0  0  0  0  0  0
   20.4747   17.9380   22.2075 H   0  0  0  0  0  0  0  0  0  0  0  0
   19.9537   19.1419   20.4741 C   0  0  0  0  0  0  0  0  0  0  0  0
   19.3624   20.0406   20.2503 H   0  0  0  0  0  0  0  0  0  0  0  0
   19.5045   18.3144   19.9077 H   0  0  0  0  0  0  0  0  0  0  0  0
   21.4067   19.3541   20.0036 C   0  0  0  0  0  0  0  0  0  0  0  0
   21.4377   19.5702   18.9278 H   0  0  0  0  0  0  0  0  0  0  0  0
   22.0135   18.4578   20.1874 H   0  0  0  0  0  0  0  0  0  0  0  0
   21.8712   20.1967   20.5326 H   0  0  0  0  0  0  0  0  0  0  0  0
  1  2  1  0  0  0  0
  1  3  2  0  0  0  0
  1  4  1  0  0  0  0
  4  5  1  0  0  0  0
  4  6  1  0  0  0  0
  4  7  1  0  0  0  0
  7  8  1  0  0  0  0
  7  9  1  0  0  0  0
  7 10  1  0  0  0  0
 10 11  1  0  0  0  0
 10 12  1  0  0  0  0
 10 13  1  0  0  0  0
 13 14  1  0  0  0  0
 13 15  1  0  0  0  0
 13 16  1  0  0  0  0
 16 17  1  0  0  0  0
 16 18  1  0  0  0  0
 16 19  1  0  0  0  0
 19 20  1  0  0  0  0
 19 21  1  0  0  0  0
 19 22  1  0  0  0  0
M  END
> <VM2 Rank>
44

> <Conf_Id>
525

> <Probability>
0.05

> <Sum Probability>
99.62

> <Delta G>
3.843

> <G>
-13.156

> <E>
-33.345

> <-TS>
20.189

> <U+W>
-51.229

> <U>
11.237

> <W>
-62.466

> <W(PB)>
-64.731

> <W(SA)>
2.265

> <Valence>
9.030

> <Coulomb>
1.667

> <VdW>
0.540

> <VdW6>
-8.824

> <VdW12>
9.364

> <Bond>
0.186

> <Angle>
3.195

> <Pdih>
5.642

> <Idih>
0.007

> <Tether>
0.000

$$$$
VeraChem MOL file


 22 21  0  0  0  0  0  0  0  0999 V2000     
   20.2410   19.0743   25.6524 C   0  0  0  0  0  0  0  0  0  0  0  0
   19.6695   19.5003   26.6365 O   0  5  0  0  0  0  0  0  0  0  0  0
   21.0469   18.1655   25.6830 O   0  0  0  0  0  0  0  0  0  0  0  0
   19.9137   19.7016   24.3022 C   0  0  0  0  0  0  0  0  0  0  0  0
   20.8165   19.6591   23.6850 H   0  0  0  0  0  0  0  0  0  0  0  0
   19.6901   20.7623   24.4674 H   0  0  0  0  0  0  0  0  0  0  0  0
   18.7185   19.0109   23.5936 C   0  0  0  0  0  0  0  0  0  0  0  0
   18.9119   17.9345   23.4871 H   0  0  0  0  0  0  0  0  0  0  0  0
   17.8404   19.1000   24.2481 H   0  0  0  0  0  0  0  0  0  0  0  0
   18.3760   19.6335   22.2163 C   0  0  0  0  0  0  0  0  0  0  0  0
   18.6500   20.6972   22.2002 H   0  0  0  0  0  0  0  0  0  0  0  0
   17.2850   19.6047   22.0901 H   0  0  0  0  0  0  0  0  0  0  0  0
   19.0042   18.9041   21.0023 C   0  0  0  0  0  0  0  0  0  0  0  0
   18.6444   17.8665   20.9738 H   0  0  0  0  0  0  0  0  0  0  0  0
   18.6352   19.3827   20.0848 H   0  0  0  0  0  0  0  0  0  0  0  0
   20.5482   18.9110   20.9845 C   0  0  0  0  0  0  0  0  0  0  0  0
   20.9330   18.3246   21.8292 H   0  0  0  0  0  0  0  0  0  0  0  0
   20.9172   19.9387   21.1053 H   0  0  0  0  0  0  0  0  0  0  0  0
   21.1021   18.3179   19.6732 C   0  0  0  0  0  0  0  0  0  0  0  0
   22.1998   18.3220   19.6806 H   0  0  0  0  0  0  0  0  0  0  0  0
   20.7670   18.9008   18.8053 H   0  0  0  0  0  0  0  0  0  0  0  0
   20.7677   17.2807   19.5398 H   0  0  0  0  0  0  0  0  0  0  0  0
  1  2  1  0  0  0  0
  1  3  2  0  0  0  0
  1  4  1  0  0  0  0
  4  5  1  0  0  0  0
  4  6  1  0  0  0  0
  4  7  1  0  0  0  0
  7  8  1  0  0  0  0
  7  9  1  0  0  0  0
  7 10  1  0  0  0  0
 10 11  1  0  0  0  0
 10 12  1  0  0  0  0
 10 13  1  0  0  0  0
 13 14  1  0  0  0  0
 13 15  1  0  0  0  0
 13 16  1  0  0  0  0
 16 17  1  0  0  0  0
 16 18  1  0  0  0  0
 16 19  1  0  0  0  0
 19 20  1  0  0  0  0
 19 21  1  0  0  0  0
 19 22  1  0  0  0  0
M  END
> <VM2 Rank>
45

> <Conf_Id>
349

> <Probability>
0.05

> <Sum Probability>
99.67

> <Delta G>
3.884

> <G>
-13.115

> <E>
-33.061

> <-TS>
19.946

> <U+W>
-50.946

> <U>
10.205

> <W>
-61.151

> <W(PB)>
-63.412

> <W(SA)>
2.261

> <Valence>
10.107

> <Coulomb>
-0.699

> <VdW>
0.797

> <VdW6>
-8.211

> <VdW12>
9.008

> <Bond>
0.191

> <Angle>
3.004

> <Pdih>
6.912

> <Idih>
0.001

> <Tether>
0.000

$$$$
VeraChem MOL file


 22 21  0  0  0  0  0  0  0  0999 V2000     
   20.2344   19.1967   25.6477 C   0  0  0  0  0  0  0  0  0  0  0  0
   20.9372   20.1870   25.6055 O   0  5  0  0  0  0  0  0  0  0  0  0
   19.7082   18.7878   26.6639 O   0  0  0  0  0  0  0  0  0  0  0  0
   19.9824   18.4365   24.3507 C   0  0  0  0  0  0  0  0  0  0  0  0
   19.8740   17.3736   24.5973 H   0  0  0  0  0  0  0  0  0  0  0  0
   20.8778   18.5291   23.7283 H   0  0  0  0  0  0  0  0  0  0  0  0
   18.7225   18.9379   23.5964 C   0  0  0  0  0  0  0  0  0  0  0  0
   17.8564   18.8046   24.2595 H   0  0  0  0  0  0  0  0  0  0  0  0
   18.7988   20.0176   23.4073 H   0  0  0  0  0  0  0  0  0  0  0  0
   18.4549   18.1786   22.2721 C   0  0  0  0  0  0  0  0  0  0  0  0
   17.3677   18.0797   22.1485 H   0  0  0  0  0  0  0  0  0  0  0  0
   18.8422   17.1525   22.3362 H   0  0  0  0  0  0  0  0  0  0  0  0
   19.0057   18.8767   21.0033 C   0  0  0  0  0  0  0  0  0  0  0  0
   18.6944   18.2924   20.1267 H   0  0  0  0  0  0  0  0  0  0  0  0
   18.5360   19.8642   20.8972 H   0  0  0  0  0  0  0  0  0  0  0  0
   20.5415   19.0352   20.9797 C   0  0  0  0  0  0  0  0  0  0  0  0
   21.0187   18.0656   21.1772 H   0  0  0  0  0  0  0  0  0  0  0  0
   20.8572   19.7226   21.7755 H   0  0  0  0  0  0  0  0  0  0  0  0
   21.0335   19.5827   19.6247 C   0  0  0  0  0  0  0  0  0  0  0  0
   20.7670   18.9024   18.8053 H   0  0  0  0  0  0  0  0  0  0  0  0
   22.1252   19.6978   19.6278 H   0  0  0  0  0  0  0  0  0  0  0  0
   20.5897   20.5645   19.4138 H   0  0  0  0  0  0  0  0  0  0  0  0
  1  2  1  0  0  0  0
  1  3  2  0  0  0  0
  1  4  1  0  0  0  0
  4  5  1  0  0  0  0
  4  6  1  0  0  0  0
  4  7  1  0  0  0  0
  7  8  1  0  0  0  0
  7  9  1  0  0  0  0
  7 10  1  0  0  0  0
 10 11  1  0  0  0  0
 10 12  1  0  0  0  0
 10 13  1  0  0  0  0
 13 14  1  0  0  0  0
 13 15  1  0  0  0  0
 13 16  1  0  0  0  0
 16 17  1  0  0  0  0
 16 18  1  0  0  0  0
 16 19  1  0  0  0  0
 19 20  1  0  0  0  0
 19 21  1  0  0  0  0
 19 22  1  0  0  0  0
M  END
> <VM2 Rank>
46

> <Conf_Id>
68

> <Probability>
0.05

> <Sum Probability>
99.71

> <Delta G>
3.909

> <G>
-13.090

> <E>
-33.035

> <-TS>
19.946

> <U+W>
-50.920

> <U>
10.205

> <W>
-61.125

> <W(PB)>
-63.384

> <W(SA)>
2.259

> <Valence>
10.107

> <Coulomb>
-0.699

> <VdW>
0.797

> <VdW6>
-8.212

> <VdW12>
9.009

> <Bond>
0.191

> <Angle>
3.004

> <Pdih>
6.911

> <Idih>
0.001

> <Tether>
0.000

$$$$
VeraChem MOL file


 22 21  0  0  0  0  0  0  0  0999 V2000     
   19.6489   19.3704   25.7714 C   0  0  0  0  0  0  0  0  0  0  0  0
   20.4819   20.1165   26.2468 O   0  5  0  0  0  0  0  0  0  0  0  0
   18.4665   19.4190   26.0469 O   0  0  0  0  0  0  0  0  0  0  0  0
   20.1106   18.3265   24.7608 C   0  0  0  0  0  0  0  0  0  0  0  0
   19.4633   17.4467   24.8595 H   0  0  0  0  0  0  0  0  0  0  0  0
   21.1260   18.0146   25.0333 H   0  0  0  0  0  0  0  0  0  0  0  0
   20.0838   18.8481   23.3029 C   0  0  0  0  0  0  0  0  0  0  0  0
   19.0620   19.1695   23.0623 H   0  0  0  0  0  0  0  0  0  0  0  0
   20.7310   19.7322   23.2209 H   0  0  0  0  0  0  0  0  0  0  0  0
   20.5432   17.7683   22.2980 C   0  0  0  0  0  0  0  0  0  0  0  0
   19.8374   16.9267   22.3183 H   0  0  0  0  0  0  0  0  0  0  0  0
   21.5119   17.3661   22.6247 H   0  0  0  0  0  0  0  0  0  0  0  0
   20.6958   18.2771   20.8425 C   0  0  0  0  0  0  0  0  0  0  0  0
   21.4681   19.0569   20.7948 H   0  0  0  0  0  0  0  0  0  0  0  0
   21.0779   17.4420   20.2396 H   0  0  0  0  0  0  0  0  0  0  0  0
   19.3839   18.7806   20.1904 C   0  0  0  0  0  0  0  0  0  0  0  0
   18.5178   18.2684   20.6317 H   0  0  0  0  0  0  0  0  0  0  0  0
   19.3924   18.5049   19.1269 H   0  0  0  0  0  0  0  0  0  0  0  0
   19.2055   20.3124   20.2842 C   0  0  0  0  0  0  0  0  0  0  0  0
   20.0325   20.8329   19.7839 H   0  0  0  0  0  0  0  0  0  0  0  0
   19.1691   20.6568   21.3239 H   0  0  0  0  0  0  0  0  0  0  0  0
   18.2715   20.6205   19.7966 H   0  0  0  0  0  0  0  0  0  0  0  0
  1  2  1  0  0  0  0
  1  3  2  0  0  0  0
  1  4  1  0  0  0  0
  4  5  1  0  0  0  0
  4  6  1  0  0  0  0
  4  7  1  0  0  0  0
  7  8  1  0  0  0  0
  7  9  1  0  0  0  0
  7 10  1  0  0  0  0
 10 11  1  0  0  0  0
 10 12  1  0  0  0  0
 10 13  1  0  0  0  0
 13 14  1  0  0  0  0
 13 15  1  0  0  0  0
 13 16  1  0  0  0  0
 16 17  1  0  0  0  0
 16 18  1  0  0  0  0
 16 19  1  0  0  0  0
 19 20  1  0  0  0  0
 19 21  1  0  0  0  0
 19 22  1  0  0  0  0
M  END
> <VM2 Rank>
47

> <Conf_Id>
347

> <Probability>
0.04

> <Sum Probability>
99.76

> <Delta G>
3.934

> <G>
-13.064

> <E>
-32.973

> <-TS>
19.909

> <U+W>
-50.858

> <U>
10.453

> <W>
-61.310

> <W(PB)>
-63.580

> <W(SA)>
2.270

> <Valence>
10.097

> <Coulomb>
-0.504

> <VdW>
0.859

> <VdW6>
-8.064

> <VdW12>
8.924

> <Bond>
0.175

> <Angle>
2.998

> <Pdih>
6.924

> <Idih>
0.000

> <Tether>
0.000

$$$$
VeraChem MOL file


 22 21  0  0  0  0  0  0  0  0999 V2000     
   20.0181   19.3277   25.8196 C   0  0  0  0  0  0  0  0  0  0  0  0
   20.5361   20.4188   25.9526 O   0  5  0  0  0  0  0  0  0  0  0  0
   20.2272   18.3885   26.5617 O   0  0  0  0  0  0  0  0  0  0  0  0
   19.0675   19.1200   24.6459 C   0  0  0  0  0  0  0  0  0  0  0  0
   18.5652   20.0732   24.4414 H   0  0  0  0  0  0  0  0  0  0  0  0
   18.2949   18.4060   24.9554 H   0  0  0  0  0  0  0  0  0  0  0  0
   19.7863   18.6118   23.3720 C   0  0  0  0  0  0  0  0  0  0  0  0
   20.5693   19.3273   23.0933 H   0  0  0  0  0  0  0  0  0  0  0  0
   20.2935   17.6637   23.5980 H   0  0  0  0  0  0  0  0  0  0  0  0
   18.7982   18.4039   22.1999 C   0  0  0  0  0  0  0  0  0  0  0  0
   18.2439   19.3306   21.9977 H   0  0  0  0  0  0  0  0  0  0  0  0
   18.0505   17.6613   22.5106 H   0  0  0  0  0  0  0  0  0  0  0  0
   19.4813   17.8999   20.9033 C   0  0  0  0  0  0  0  0  0  0  0  0
   20.3763   17.3117   21.1477 H   0  0  0  0  0  0  0  0  0  0  0  0
   18.7938   17.2035   20.4040 H   0  0  0  0  0  0  0  0  0  0  0  0
   19.8371   19.0120   19.8858 C   0  0  0  0  0  0  0  0  0  0  0  0
   18.9222   19.5383   19.5806 H   0  0  0  0  0  0  0  0  0  0  0  0
   20.2365   18.5388   18.9781 H   0  0  0  0  0  0  0  0  0  0  0  0
   20.8682   20.0363   20.4032 C   0  0  0  0  0  0  0  0  0  0  0  0
   20.4474   20.6474   21.2114 H   0  0  0  0  0  0  0  0  0  0  0  0
   21.1703   20.7173   19.5972 H   0  0  0  0  0  0  0  0  0  0  0  0
   21.7693   19.5337   20.7779 H   0  0  0  0  0  0  0  0  0  0  0  0
  1  2  1  0  0  0  0
  1  3  2  0  0  0  0
  1  4  1  0  0  0  0
  4  5  1  0  0  0  0
  4  6  1  0  0  0  0
  4  7  1  0  0  0  0
  7  8  1  0  0  0  0
  7  9  1  0  0  0  0
  7 10  1  0  0  0  0
 10 11  1  0  0  0  0
 10 12  1  0  0  0  0
 10 13  1  0  0  0  0
 13 14  1  0  0  0  0
 13 15  1  0  0  0  0
 13 16  1  0  0  0  0
 16 17  1  0  0  0  0
 16 18  1  0  0  0  0
 16 19  1  0  0  0  0
 19 20  1  0  0  0  0
 19 21  1  0  0  0  0
 19 22  1  0  0  0  0
M  END
> <VM2 Rank>
48

> <Conf_Id>
271

> <Probability>
0.04

> <Sum Probability>
99.80

> <Delta G>
3.974

> <G>
-13.025

> <E>
-32.933

> <-TS>
19.908

> <U+W>
-50.817

> <U>
10.295

> <W>
-61.113

> <W(PB)>
-63.368

> <W(SA)>
2.256

> <Valence>
10.075

> <Coulomb>
-0.615

> <VdW>
0.835

> <VdW6>
-8.072

> <VdW12>
8.908

> <Bond>
0.176

> <Angle>
2.976

> <Pdih>
6.923

> <Idih>
0.000

> <Tether>
0.000

$$$$
VeraChem MOL file


 22 21  0  0  0  0  0  0  0  0999 V2000     
   19.6751   18.8495   25.7914 C   0  0  0  0  0  0  0  0  0  0  0  0
   18.5023   18.7038   26.0739 O   0  5  0  0  0  0  0  0  0  0  0  0
   20.5766   18.2293   26.3196 O   0  0  0  0  0  0  0  0  0  0  0  0
   20.0340   19.8542   24.7023 C   0  0  0  0  0  0  0  0  0  0  0  0
   21.0121   20.2857   24.9463 H   0  0  0  0  0  0  0  0  0  0  0  0
   19.3018   20.6698   24.7360 H   0  0  0  0  0  0  0  0  0  0  0  0
   20.0650   19.2227   23.2886 C   0  0  0  0  0  0  0  0  0  0  0  0
   20.7975   18.4039   23.2718 H   0  0  0  0  0  0  0  0  0  0  0  0
   19.0814   18.7835   23.0771 H   0  0  0  0  0  0  0  0  0  0  0  0
   20.4182   20.2630   22.2024 C   0  0  0  0  0  0  0  0  0  0  0  0
   21.3406   20.7837   22.4938 H   0  0  0  0  0  0  0  0  0  0  0  0
   19.6318   21.0290   22.1611 H   0  0  0  0  0  0  0  0  0  0  0  0
   20.6264   19.6624   20.7894 C   0  0  0  0  0  0  0  0  0  0  0  0
   20.9257   20.4830   20.1231 H   0  0  0  0  0  0  0  0  0  0  0  0
   21.4728   18.9621   20.7984 H   0  0  0  0  0  0  0  0  0  0  0  0
   19.3738   18.9822   20.1827 C   0  0  0  0  0  0  0  0  0  0  0  0
   19.3589   19.1754   19.1011 H   0  0  0  0  0  0  0  0  0  0  0  0
   18.4592   19.4377   20.5868 H   0  0  0  0  0  0  0  0  0  0  0  0
   19.3486   17.4519   20.3937 C   0  0  0  0  0  0  0  0  0  0  0  0
   20.2254   16.9798   19.9316 H   0  0  0  0  0  0  0  0  0  0  0  0
   18.4520   17.0159   19.9347 H   0  0  0  0  0  0  0  0  0  0  0  0
   19.3428   17.1860   21.4568 H   0  0  0  0  0  0  0  0  0  0  0  0
  1  2  1  0  0  0  0
  1  3  2  0  0  0  0
  1  4  1  0  0  0  0
  4  5  1  0  0  0  0
  4  6  1  0  0  0  0
  4  7  1  0  0  0  0
  7  8  1  0  0  0  0
  7  9  1  0  0  0  0
  7 10  1  0  0  0  0
 10 11  1  0  0  0  0
 10 12  1  0  0  0  0
 10 13  1  0  0  0  0
 13 14  1  0  0  0  0
 13 15  1  0  0  0  0
 13 16  1  0  0  0  0
 16 17  1  0  0  0  0
 16 18  1  0  0  0  0
 16 19  1  0  0  0  0
 19 20  1  0  0  0  0
 19 21  1  0  0  0  0
 19 22  1  0  0  0  0
M  END
> <VM2 Rank>
49

> <Conf_Id>
564

> <Probability>
0.04

> <Sum Probability>
99.84

> <Delta G>
3.998

> <G>
-13.001

> <E>
-32.910

> <-TS>
19.909

> <U+W>
-50.794

> <U>
10.452

> <W>
-61.248

> <W(PB)>
-63.525

> <W(SA)>
2.278

> <Valence>
10.097

> <Coulomb>
-0.504

> <VdW>
0.859

> <VdW6>
-8.064

> <VdW12>
8.923

> <Bond>
0.175

> <Angle>
2.998

> <Pdih>
6.924

> <Idih>
0.000

> <Tether>
0.000

$$$$
VeraChem MOL file


 22 21  0  0  0  0  0  0  0  0999 V2000     
   19.9959   19.3431   25.8191 C   0  0  0  0  0  0  0  0  0  0  0  0
   20.8249   20.2203   25.9593 O   0  5  0  0  0  0  0  0  0  0  0  0
   19.0229   19.2157   26.5358 O   0  0  0  0  0  0  0  0  0  0  0  0
   20.1768   18.3582   24.6694 C   0  0  0  0  0  0  0  0  0  0  0  0
   19.7787   17.3870   24.9869 H   0  0  0  0  0  0  0  0  0  0  0  0
   21.2522   18.2279   24.4984 H   0  0  0  0  0  0  0  0  0  0  0  0
   19.4816   18.8212   23.3654 C   0  0  0  0  0  0  0  0  0  0  0  0
   18.4086   18.9582   23.5579 H   0  0  0  0  0  0  0  0  0  0  0  0
   19.8765   19.8033   23.0786 H   0  0  0  0  0  0  0  0  0  0  0  0
   19.6759   17.8013   22.2185 C   0  0  0  0  0  0  0  0  0  0  0  0
   19.2423   16.8430   22.5359 H   0  0  0  0  0  0  0  0  0  0  0  0
   20.7451   17.6132   22.0507 H   0  0  0  0  0  0  0  0  0  0  0  0
   18.9979   18.2318   20.8930 C   0  0  0  0  0  0  0  0  0  0  0  0
   18.6093   17.3302   20.4000 H   0  0  0  0  0  0  0  0  0  0  0  0
   18.1207   18.8600   21.0999 H   0  0  0  0  0  0  0  0  0  0  0  0
   19.9368   18.9435   19.8879 C   0  0  0  0  0  0  0  0  0  0  0  0
   19.3782   19.1280   18.9599 H   0  0  0  0  0  0  0  0  0  0  0  0
   20.7650   18.2732   19.6196 H   0  0  0  0  0  0  0  0  0  0  0  0
   20.5074   20.2840   20.3955 C   0  0  0  0  0  0  0  0  0  0  0  0
   19.7042   20.9513   20.7342 H   0  0  0  0  0  0  0  0  0  0  0  0
   21.0574   20.7948   19.5947 H   0  0  0  0  0  0  0  0  0  0  0  0
   21.2054   20.1271   21.2273 H   0  0  0  0  0  0  0  0  0  0  0  0
  1  2  1  0  0  0  0
  1  3  2  0  0  0  0
  1  4  1  0  0  0  0
  4  5  1  0  0  0  0
  4  6  1  0  0  0  0
  4  7  1  0  0  0  0
  7  8  1  0  0  0  0
  7  9  1  0  0  0  0
  7 10  1  0  0  0  0
 10 11  1  0  0  0  0
 10 12  1  0  0  0  0
 10 13  1  0  0  0  0
 13 14  1  0  0  0  0
 13 15  1  0  0  0  0
 13 16  1  0  0  0  0
 16 17  1  0  0  0  0
 16 18  1  0  0  0  0
 16 19  1  0  0  0  0
 19 20  1  0  0  0  0
 19 21  1  0  0  0  0
 19 22  1  0  0  0  0
M  END
> <VM2 Rank>
50

> <Conf_Id>
574

> <Probability>
0.03

> <Sum Probability>
99.87

> <Delta G>
4.091

> <G>
-12.907

> <E>
-32.815

> <-TS>
19.907

> <U+W>
-50.700

> <U>
10.295

> <W>
-60.995

> <W(PB)>
-63.272

> <W(SA)>
2.277

> <Valence>
10.075

> <Coulomb>
-0.616

> <VdW>
0.835

> <VdW6>
-8.072

> <VdW12>
8.907

> <Bond>
0.176

> <Angle>
2.976

> <Pdih>
6.922

> <Idih>
0.000

> <Tether>
0.000

$$$$
VeraChem MOL file


 22 21  0  0  0  0  0  0  0  0999 V2000     
   19.9452   18.9963   25.4997 C   0  0  0  0  0  0  0  0  0  0  0  0
   19.4135   19.7567   26.2848 O   0  5  0  0  0  0  0  0  0  0  0  0
   19.9191   17.7866   25.6141 O   0  0  0  0  0  0  0  0  0  0  0  0
   20.7130   19.5966   24.3253 C   0  0  0  0  0  0  0  0  0  0  0  0
   21.3536   18.8205   23.8911 H   0  0  0  0  0  0  0  0  0  0  0  0
   21.3841   20.3624   24.7313 H   0  0  0  0  0  0  0  0  0  0  0  0
   19.8085   20.2318   23.2342 C   0  0  0  0  0  0  0  0  0  0  0  0
   19.2252   21.0440   23.6892 H   0  0  0  0  0  0  0  0  0  0  0  0
   20.4398   20.7050   22.4711 H   0  0  0  0  0  0  0  0  0  0  0  0
   18.8304   19.2378   22.5565 C   0  0  0  0  0  0  0  0  0  0  0  0
   18.2178   19.7840   21.8273 H   0  0  0  0  0  0  0  0  0  0  0  0
   18.1261   18.8604   23.3103 H   0  0  0  0  0  0  0  0  0  0  0  0
   19.5002   18.0258   21.8574 C   0  0  0  0  0  0  0  0  0  0  0  0
   19.9787   17.3906   22.6149 H   0  0  0  0  0  0  0  0  0  0  0  0
   18.7151   17.4055   21.4045 H   0  0  0  0  0  0  0  0  0  0  0  0
   20.5421   18.3848   20.7695 C   0  0  0  0  0  0  0  0  0  0  0  0
   20.9654   17.4534   20.3692 H   0  0  0  0  0  0  0  0  0  0  0  0
   21.3820   18.9329   21.2165 H   0  0  0  0  0  0  0  0  0  0  0  0
   19.9481   19.2027   19.6024 C   0  0  0  0  0  0  0  0  0  0  0  0
   19.0953   18.6796   19.1506 H   0  0  0  0  0  0  0  0  0  0  0  0
   20.7021   19.3601   18.8205 H   0  0  0  0  0  0  0  0  0  0  0  0
   19.6074   20.1895   19.9402 H   0  0  0  0  0  0  0  0  0  0  0  0
  1  2  1  0  0  0  0
  1  3  2  0  0  0  0
  1  4  1  0  0  0  0
  4  5  1  0  0  0  0
  4  6  1  0  0  0  0
  4  7  1  0  0  0  0
  7  8  1  0  0  0  0
  7  9  1  0  0  0  0
  7 10  1  0  0  0  0
 10 11  1  0  0  0  0
 10 12  1  0  0  0  0
 10 13  1  0  0  0  0
 13 14  1  0  0  0  0
 13 15  1  0  0  0  0
 13 16  1  0  0  0  0
 16 17  1  0  0  0  0
 16 18  1  0  0  0  0
 16 19  1  0  0  0  0
 19 20  1  0  0  0  0
 19 21  1  0  0  0  0
 19 22  1  0  0  0  0
M  END
> <VM2 Rank>
51

> <Conf_Id>
369

> <Probability>
0.02

> <Sum Probability>
99.89

> <Delta G>
4.563

> <G>
-12.436

> <E>
-33.139

> <-TS>
20.703

> <U+W>
-51.024

> <U>
10.566

> <W>
-61.589

> <W(PB)>
-63.774

> <W(SA)>
2.185

> <Valence>
8.743

> <Coulomb>
1.384

> <VdW>
0.439

> <VdW6>
-10.218

> <VdW12>
10.656

> <Bond>
0.248

> <Angle>
3.454

> <Pdih>
5.040

> <Idih>
0.001

> <Tether>
0.000

$$$$
VeraChem MOL file


 22 21  0  0  0  0  0  0  0  0999 V2000     
   19.9326   19.2304   25.4907 C   0  0  0  0  0  0  0  0  0  0  0  0
   19.7761   20.4354   25.5125 O   0  5  0  0  0  0  0  0  0  0  0  0
   19.4824   18.4794   26.3338 O   0  0  0  0  0  0  0  0  0  0  0  0
   20.7653   18.6281   24.3625 C   0  0  0  0  0  0  0  0  0  0  0  0
   21.5130   17.9721   24.8230 H   0  0  0  0  0  0  0  0  0  0  0  0
   21.3206   19.4331   23.8676 H   0  0  0  0  0  0  0  0  0  0  0  0
   19.9387   17.8179   23.3268 C   0  0  0  0  0  0  0  0  0  0  0  0
   20.6204   17.3584   22.5995 H   0  0  0  0  0  0  0  0  0  0  0  0
   19.4442   16.9848   23.8450 H   0  0  0  0  0  0  0  0  0  0  0  0
   18.8624   18.6463   22.5792 C   0  0  0  0  0  0  0  0  0  0  0  0
   18.1184   19.0024   23.3049 H   0  0  0  0  0  0  0  0  0  0  0  0
   18.3150   17.9834   21.8964 H   0  0  0  0  0  0  0  0  0  0  0  0
   19.4009   19.8664   21.7868 C   0  0  0  0  0  0  0  0  0  0  0  0
   18.5555   20.3623   21.2911 H   0  0  0  0  0  0  0  0  0  0  0  0
   19.8052   20.6052   22.4916 H   0  0  0  0  0  0  0  0  0  0  0  0
   20.4798   19.5393   20.7252 C   0  0  0  0  0  0  0  0  0  0  0  0
   21.3719   19.1204   21.2093 H   0  0  0  0  0  0  0  0  0  0  0  0
   20.8022   20.4775   20.2532 H   0  0  0  0  0  0  0  0  0  0  0  0
   19.9819   18.5757   19.6265 C   0  0  0  0  0  0  0  0  0  0  0  0
   19.7478   17.5867   20.0400 H   0  0  0  0  0  0  0  0  0  0  0  0
   20.7516   18.4409   18.8557 H   0  0  0  0  0  0  0  0  0  0  0  0
   19.0797   18.9681   19.1395 H   0  0  0  0  0  0  0  0  0  0  0  0
  1  2  1  0  0  0  0
  1  3  2  0  0  0  0
  1  4  1  0  0  0  0
  4  5  1  0  0  0  0
  4  6  1  0  0  0  0
  4  7  1  0  0  0  0
  7  8  1  0  0  0  0
  7  9  1  0  0  0  0
  7 10  1  0  0  0  0
 10 11  1  0  0  0  0
 10 12  1  0  0  0  0
 10 13  1  0  0  0  0
 13 14  1  0  0  0  0
 13 15  1  0  0  0  0
 13 16  1  0  0  0  0
 16 17  1  0  0  0  0
 16 18  1  0  0  0  0
 16 19  1  0  0  0  0
 19 20  1  0  0  0  0
 19 21  1  0  0  0  0
 19 22  1  0  0  0  0
M  END
> <VM2 Rank>
52

> <Conf_Id>
346

> <Probability>
0.01

> <Sum Probability>
99.90

> <Delta G>
4.595

> <G>
-12.404

> <E>
-33.107

> <-TS>
20.703

> <U+W>
-50.992

> <U>
10.566

> <W>
-61.558

> <W(PB)>
-63.746

> <W(SA)>
2.188

> <Valence>
8.743

> <Coulomb>
1.384

> <VdW>
0.439

> <VdW6>
-10.218

> <VdW12>
10.656

> <Bond>
0.248

> <Angle>
3.454

> <Pdih>
5.040

> <Idih>
0.001

> <Tether>
0.000

$$$$
VeraChem MOL file


 22 21  0  0  0  0  0  0  0  0999 V2000     
   20.1772   18.9382   25.3009 C   0  0  0  0  0  0  0  0  0  0  0  0
   20.4597   20.0369   25.7375 O   0  5  0  0  0  0  0  0  0  0  0  0
   20.9595   18.0086   25.2690 O   0  0  0  0  0  0  0  0  0  0  0  0
   18.7448   18.6906   24.8314 C   0  0  0  0  0  0  0  0  0  0  0  0
   18.1052   18.8157   25.7127 H   0  0  0  0  0  0  0  0  0  0  0  0
   18.6482   17.6437   24.5193 H   0  0  0  0  0  0  0  0  0  0  0  0
   18.2434   19.6364   23.7039 C   0  0  0  0  0  0  0  0  0  0  0  0
   17.1453   19.6138   23.7050 H   0  0  0  0  0  0  0  0  0  0  0  0
   18.5245   20.6738   23.9329 H   0  0  0  0  0  0  0  0  0  0  0  0
   18.7220   19.2581   22.2803 C   0  0  0  0  0  0  0  0  0  0  0  0
   18.1945   19.8977   21.5596 H   0  0  0  0  0  0  0  0  0  0  0  0
   18.4203   18.2260   22.0581 H   0  0  0  0  0  0  0  0  0  0  0  0
   20.2462   19.4191   22.0664 C   0  0  0  0  0  0  0  0  0  0  0  0
   20.5632   20.3975   22.4525 H   0  0  0  0  0  0  0  0  0  0  0  0
   20.7882   18.6622   22.6476 H   0  0  0  0  0  0  0  0  0  0  0  0
   20.6694   19.3115   20.5828 C   0  0  0  0  0  0  0  0  0  0  0  0
   21.7434   19.5295   20.5056 H   0  0  0  0  0  0  0  0  0  0  0  0
   20.1532   20.0811   19.9926 H   0  0  0  0  0  0  0  0  0  0  0  0
   20.3978   17.9196   19.9719 C   0  0  0  0  0  0  0  0  0  0  0  0
   20.8842   17.1311   20.5608 H   0  0  0  0  0  0  0  0  0  0  0  0
   20.7883   17.8667   18.9475 H   0  0  0  0  0  0  0  0  0  0  0  0
   19.3227   17.7044   19.9299 H   0  0  0  0  0  0  0  0  0  0  0  0
  1  2  1  0  0  0  0
  1  3  2  0  0  0  0
  1  4  1  0  0  0  0
  4  5  1  0  0  0  0
  4  6  1  0  0  0  0
  4  7  1  0  0  0  0
  7  8  1  0  0  0  0
  7  9  1  0  0  0  0
  7 10  1  0  0  0  0
 10 11  1  0  0  0  0
 10 12  1  0  0  0  0
 10 13  1  0  0  0  0
 13 14  1  0  0  0  0
 13 15  1  0  0  0  0
 13 16  1  0  0  0  0
 16 17  1  0  0  0  0
 16 18  1  0  0  0  0
 16 19  1  0  0  0  0
 19 20  1  0  0  0  0
 19 21  1  0  0  0  0
 19 22  1  0  0  0  0
M  END
> <VM2 Rank>
53

> <Conf_Id>
487

> <Probability>
0.01

> <Sum Probability>
99.91

> <Delta G>
4.684

> <G>
-12.315

> <E>
-32.675

> <-TS>
20.361

> <U+W>
-50.560

> <U>
11.686

> <W>
-62.246

> <W(PB)>
-64.461

> <W(SA)>
2.214

> <Valence>
9.470

> <Coulomb>
1.563

> <VdW>
0.654

> <VdW6>
-9.495

> <VdW12>
10.148

> <Bond>
0.216

> <Angle>
3.352

> <Pdih>
5.895

> <Idih>
0.007

> <Tether>
0.000

$$$$
VeraChem MOL file


 22 21  0  0  0  0  0  0  0  0999 V2000     
   20.1578   19.2978   25.2870 C   0  0  0  0  0  0  0  0  0  0  0  0
   20.8353   20.3012   25.1810 O   0  5  0  0  0  0  0  0  0  0  0  0
   20.5553   18.2725   25.8050 O   0  0  0  0  0  0  0  0  0  0  0  0
   18.7090   19.3529   24.8060 C   0  0  0  0  0  0  0  0  0  0  0  0
   18.5012   20.3564   24.4153 H   0  0  0  0  0  0  0  0  0  0  0  0
   18.0830   19.2272   25.6970 H   0  0  0  0  0  0  0  0  0  0  0  0
   18.3170   18.2753   23.7561 C   0  0  0  0  0  0  0  0  0  0  0  0
   18.7073   17.2948   24.0625 H   0  0  0  0  0  0  0  0  0  0  0  0
   17.2229   18.1795   23.7601 H   0  0  0  0  0  0  0  0  0  0  0  0
   18.7580   18.5932   22.3058 C   0  0  0  0  0  0  0  0  0  0  0  0
   18.3479   19.5668   22.0068 H   0  0  0  0  0  0  0  0  0  0  0  0
   18.3053   17.8475   21.6382 H   0  0  0  0  0  0  0  0  0  0  0  0
   20.2915   18.5813   22.0985 C   0  0  0  0  0  0  0  0  0  0  0  0
   20.7465   19.4342   22.6181 H   0  0  0  0  0  0  0  0  0  0  0  0
   20.7103   17.6749   22.5567 H   0  0  0  0  0  0  0  0  0  0  0  0
   20.7067   18.6204   20.6093 C   0  0  0  0  0  0  0  0  0  0  0  0
   20.2787   17.7570   20.0816 H   0  0  0  0  0  0  0  0  0  0  0  0
   21.7983   18.5139   20.5445 H   0  0  0  0  0  0  0  0  0  0  0  0
   20.2894   19.9243   19.8953 C   0  0  0  0  0  0  0  0  0  0  0  0
   20.6857   20.8032   20.4204 H   0  0  0  0  0  0  0  0  0  0  0  0
   19.1976   20.0188   19.8414 H   0  0  0  0  0  0  0  0  0  0  0  0
   20.6763   19.9408   18.8682 H   0  0  0  0  0  0  0  0  0  0  0  0
  1  2  1  0  0  0  0
  1  3  2  0  0  0  0
  1  4  1  0  0  0  0
  4  5  1  0  0  0  0
  4  6  1  0  0  0  0
  4  7  1  0  0  0  0
  7  8  1  0  0  0  0
  7  9  1  0  0  0  0
  7 10  1  0  0  0  0
 10 11  1  0  0  0  0
 10 12  1  0  0  0  0
 10 13  1  0  0  0  0
 13 14  1  0  0  0  0
 13 15  1  0  0  0  0
 13 16  1  0  0  0  0
 16 17  1  0  0  0  0
 16 18  1  0  0  0  0
 16 19  1  0  0  0  0
 19 20  1  0  0  0  0
 19 21  1  0  0  0  0
 19 22  1  0  0  0  0
M  END
> <VM2 Rank>
54

> <Conf_Id>
355

> <Probability>
0.01

> <Sum Probability>
99.93

> <Delta G>
4.731

> <G>
-12.268

> <E>
-32.628

> <-TS>
20.360

> <U+W>
-50.513

> <U>
11.687

> <W>
-62.200

> <W(PB)>
-64.428

> <W(SA)>
2.228

> <Valence>
9.470

> <Coulomb>
1.563

> <VdW>
0.654

> <VdW6>
-9.495

> <VdW12>
10.148

> <Bond>
0.216

> <Angle>
3.352

> <Pdih>
5.895

> <Idih>
0.007

> <Tether>
0.000

$$$$
VeraChem MOL file


 22 21  0  0  0  0  0  0  0  0999 V2000     
   19.4994   18.9395   25.3827 C   0  0  0  0  0  0  0  0  0  0  0  0
   18.3400   19.2988   25.4445 O   0  5  0  0  0  0  0  0  0  0  0  0
   19.8787   17.8376   25.7282 O   0  0  0  0  0  0  0  0  0  0  0  0
   20.5423   19.9504   24.9097 C   0  0  0  0  0  0  0  0  0  0  0  0
   21.2043   20.1318   25.7643 H   0  0  0  0  0  0  0  0  0  0  0  0
   20.0436   20.9027   24.6920 H   0  0  0  0  0  0  0  0  0  0  0  0
   21.3998   19.5005   23.6932 C   0  0  0  0  0  0  0  0  0  0  0  0
   22.3233   20.0951   23.6929 H   0  0  0  0  0  0  0  0  0  0  0  0
   21.7141   18.4554   23.8214 H   0  0  0  0  0  0  0  0  0  0  0  0
   20.7215   19.6857   22.3128 C   0  0  0  0  0  0  0  0  0  0  0  0
   21.4794   19.4990   21.5418 H   0  0  0  0  0  0  0  0  0  0  0  0
   20.4089   20.7318   22.1921 H   0  0  0  0  0  0  0  0  0  0  0  0
   19.5112   18.7505   22.0749 C   0  0  0  0  0  0  0  0  0  0  0  0
   19.8051   17.7072   22.2536 H   0  0  0  0  0  0  0  0  0  0  0  0
   18.7252   18.9829   22.8036 H   0  0  0  0  0  0  0  0  0  0  0  0
   18.8992   18.8833   20.6606 C   0  0  0  0  0  0  0  0  0  0  0  0
   18.6276   19.9308   20.4702 H   0  0  0  0  0  0  0  0  0  0  0  0
   17.9625   18.3099   20.6292 H   0  0  0  0  0  0  0  0  0  0  0  0
   19.8280   18.3725   19.5374 C   0  0  0  0  0  0  0  0  0  0  0  0
   20.7278   18.9931   19.4457 H   0  0  0  0  0  0  0  0  0  0  0  0
   19.3091   18.3970   18.5705 H   0  0  0  0  0  0  0  0  0  0  0  0
   20.1406   17.3373   19.7266 H   0  0  0  0  0  0  0  0  0  0  0  0
  1  2  1  0  0  0  0
  1  3  2  0  0  0  0
  1  4  1  0  0  0  0
  4  5  1  0  0  0  0
  4  6  1  0  0  0  0
  4  7  1  0  0  0  0
  7  8  1  0  0  0  0
  7  9  1  0  0  0  0
  7 10  1  0  0  0  0
 10 11  1  0  0  0  0
 10 12  1  0  0  0  0
 10 13  1  0  0  0  0
 13 14  1  0  0  0  0
 13 15  1  0  0  0  0
 13 16  1  0  0  0  0
 16 17  1  0  0  0  0
 16 18  1  0  0  0  0
 16 19  1  0  0  0  0
 19 20  1  0  0  0  0
 19 21  1  0  0  0  0
 19 22  1  0  0  0  0
M  END
> <VM2 Rank>
55

> <Conf_Id>
555

> <Probability>
0.01

> <Sum Probability>
99.94

> <Delta G>
4.759

> <G>
-12.239

> <E>
-32.431

> <-TS>
20.192

> <U+W>
-50.316

> <U>
11.648

> <W>
-61.964

> <W(PB)>
-64.186

> <W(SA)>
2.222

> <Valence>
9.667

> <Coulomb>
1.201

> <VdW>
0.779

> <VdW6>
-9.278

> <VdW12>
10.057

> <Bond>
0.225

> <Angle>
3.506

> <Pdih>
5.930

> <Idih>
0.006

> <Tether>
0.000

$$$$
VeraChem MOL file


 22 21  0  0  0  0  0  0  0  0999 V2000     
   19.4840   19.2305   25.3715 C   0  0  0  0  0  0  0  0  0  0  0  0
   19.7438   20.3893   25.6305 O   0  5  0  0  0  0  0  0  0  0  0  0
   18.3686   18.7570   25.4651 O   0  0  0  0  0  0  0  0  0  0  0  0
   20.6295   18.3019   24.9729 C   0  0  0  0  0  0  0  0  0  0  0  0
   20.2347   17.2886   24.8305 H   0  0  0  0  0  0  0  0  0  0  0  0
   21.3034   18.2570   25.8362 H   0  0  0  0  0  0  0  0  0  0  0  0
   21.4397   18.7455   23.7221 C   0  0  0  0  0  0  0  0  0  0  0  0
   21.6416   19.8247   23.7690 H   0  0  0  0  0  0  0  0  0  0  0  0
   22.4208   18.2533   23.7636 H   0  0  0  0  0  0  0  0  0  0  0  0
   20.7905   18.3850   22.3626 C   0  0  0  0  0  0  0  0  0  0  0  0
   20.5908   17.3056   22.3233 H   0  0  0  0  0  0  0  0  0  0  0  0
   21.5275   18.5914   21.5766 H   0  0  0  0  0  0  0  0  0  0  0  0
   19.4891   19.1661   22.0590 C   0  0  0  0  0  0  0  0  0  0  0  0
   18.7290   18.9079   22.8063 H   0  0  0  0  0  0  0  0  0  0  0  0
   19.6702   20.2452   22.1567 H   0  0  0  0  0  0  0  0  0  0  0  0
   18.9004   18.8621   20.6613 C   0  0  0  0  0  0  0  0  0  0  0  0
   17.9083   19.3289   20.5902 H   0  0  0  0  0  0  0  0  0  0  0  0
   18.7422   17.7803   20.5522 H   0  0  0  0  0  0  0  0  0  0  0  0
   19.7745   19.3816   19.4989 C   0  0  0  0  0  0  0  0  0  0  0  0
   19.2652   19.2288   18.5387 H   0  0  0  0  0  0  0  0  0  0  0  0
   20.7355   18.8549   19.4511 H   0  0  0  0  0  0  0  0  0  0  0  0
   19.9747   20.4555   19.6076 H   0  0  0  0  0  0  0  0  0  0  0  0
  1  2  1  0  0  0  0
  1  3  2  0  0  0  0
  1  4  1  0  0  0  0
  4  5  1  0  0  0  0
  4  6  1  0  0  0  0
  4  7  1  0  0  0  0
  7  8  1  0  0  0  0
  7  9  1  0  0  0  0
  7 10  1  0  0  0  0
 10 11  1  0  0  0  0
 10 12  1  0  0  0  0
 10 13  1  0  0  0  0
 13 14  1  0  0  0  0
 13 15  1  0  0  0  0
 13 16  1  0  0  0  0
 16 17  1  0  0  0  0
 16 18  1  0  0  0  0
 16 19  1  0  0  0  0
 19 20  1  0  0  0  0
 19 21  1  0  0  0  0
 19 22  1  0  0  0  0
M  END
> <VM2 Rank>
56

> <Conf_Id>
510

> <Probability>
0.01

> <Sum Probability>
99.95

> <Delta G>
4.799

> <G>
-12.199

> <E>
-32.393

> <-TS>
20.193

> <U+W>
-50.278

> <U>
11.648

> <W>
-61.925

> <W(PB)>
-64.166

> <W(SA)>
2.241

> <Valence>
9.667

> <Coulomb>
1.201

> <VdW>
0.779

> <VdW6>
-9.278

> <VdW12>
10.057

> <Bond>
0.225

> <Angle>
3.506

> <Pdih>
5.931

> <Idih>
0.006

> <Tether>
0.000

$$$$
VeraChem MOL file


 22 21  0  0  0  0  0  0  0  0999 V2000     
   20.2206   19.1617   25.6735 C   0  0  0  0  0  0  0  0  0  0  0  0
   20.1917   20.2277   26.2559 O   0  5  0  0  0  0  0  0  0  0  0  0
   20.2977   18.0886   26.2383 O   0  0  0  0  0  0  0  0  0  0  0  0
   20.1336   19.1701   24.1515 C   0  0  0  0  0  0  0  0  0  0  0  0
   20.7238   18.3245   23.7810 H   0  0  0  0  0  0  0  0  0  0  0  0
   20.6084   20.0891   23.7877 H   0  0  0  0  0  0  0  0  0  0  0  0
   18.6763   19.0784   23.6328 C   0  0  0  0  0  0  0  0  0  0  0  0
   18.2419   18.1175   23.9410 H   0  0  0  0  0  0  0  0  0  0  0  0
   18.0782   19.8580   24.1246 H   0  0  0  0  0  0  0  0  0  0  0  0
   18.5355   19.2455   22.0989 C   0  0  0  0  0  0  0  0  0  0  0  0
   18.8790   20.2439   21.8011 H   0  0  0  0  0  0  0  0  0  0  0  0
   17.4636   19.2173   21.8606 H   0  0  0  0  0  0  0  0  0  0  0  0
   19.2428   18.1449   21.2641 C   0  0  0  0  0  0  0  0  0  0  0  0
   19.2880   17.2159   21.8486 H   0  0  0  0  0  0  0  0  0  0  0  0
   18.6238   17.9123   20.3868 H   0  0  0  0  0  0  0  0  0  0  0  0
   20.6638   18.5151   20.7706 C   0  0  0  0  0  0  0  0  0  0  0  0
   21.1449   17.6088   20.3781 H   0  0  0  0  0  0  0  0  0  0  0  0
   21.2872   18.8569   21.6055 H   0  0  0  0  0  0  0  0  0  0  0  0
   20.6580   19.5870   19.6584 C   0  0  0  0  0  0  0  0  0  0  0  0
   20.0471   19.2643   18.8053 H   0  0  0  0  0  0  0  0  0  0  0  0
   21.6776   19.7661   19.2935 H   0  0  0  0  0  0  0  0  0  0  0  0
   20.2621   20.5434   20.0208 H   0  0  0  0  0  0  0  0  0  0  0  0
  1  2  1  0  0  0  0
  1  3  2  0  0  0  0
  1  4  1  0  0  0  0
  4  5  1  0  0  0  0
  4  6  1  0  0  0  0
  4  7  1  0  0  0  0
  7  8  1  0  0  0  0
  7  9  1  0  0  0  0
  7 10  1  0  0  0  0
 10 11  1  0  0  0  0
 10 12  1  0  0  0  0
 10 13  1  0  0  0  0
 13 14  1  0  0  0  0
 13 15  1  0  0  0  0
 13 16  1  0  0  0  0
 16 17  1  0  0  0  0
 16 18  1  0  0  0  0
 16 19  1  0  0  0  0
 19 20  1  0  0  0  0
 19 21  1  0  0  0  0
 19 22  1  0  0  0  0
M  END
> <VM2 Rank>
57

> <Conf_Id>
361

> <Probability>
0.01

> <Sum Probability>
99.96

> <Delta G>
4.834

> <G>
-12.165

> <E>
-32.168

> <-TS>
20.003

> <U+W>
-50.053

> <U>
11.011

> <W>
-61.064

> <W(PB)>
-63.296

> <W(SA)>
2.232

> <Valence>
10.805

> <Coulomb>
-0.761

> <VdW>
0.967

> <VdW6>
-8.670

> <VdW12>
9.637

> <Bond>
0.224

> <Angle>
3.241

> <Pdih>
7.339

> <Idih>
0.001

> <Tether>
0.000

$$$$
VeraChem MOL file


 22 21  0  0  0  0  0  0  0  0999 V2000     
   19.6130   18.7744   25.5635 C   0  0  0  0  0  0  0  0  0  0  0  0
   19.2502   19.5349   26.4391 O   0  5  0  0  0  0  0  0  0  0  0  0
   20.2111   17.7386   25.7777 O   0  0  0  0  0  0  0  0  0  0  0  0
   19.3196   19.1512   24.1159 C   0  0  0  0  0  0  0  0  0  0  0  0
   18.3767   19.7106   24.0963 H   0  0  0  0  0  0  0  0  0  0  0  0
   19.1536   18.2249   23.5582 H   0  0  0  0  0  0  0  0  0  0  0  0
   20.4526   19.9948   23.4742 C   0  0  0  0  0  0  0  0  0  0  0  0
   20.5898   20.8954   24.0887 H   0  0  0  0  0  0  0  0  0  0  0  0
   21.4036   19.4466   23.5202 H   0  0  0  0  0  0  0  0  0  0  0  0
   20.1553   20.4343   22.0175 C   0  0  0  0  0  0  0  0  0  0  0  0
   20.5947   21.4305   21.8721 H   0  0  0  0  0  0  0  0  0  0  0  0
   19.0759   20.5673   21.8676 H   0  0  0  0  0  0  0  0  0  0  0  0
   20.7514   19.5082   20.9247 C   0  0  0  0  0  0  0  0  0  0  0  0
   20.5945   19.9792   19.9447 H   0  0  0  0  0  0  0  0  0  0  0  0
   21.8402   19.4564   21.0607 H   0  0  0  0  0  0  0  0  0  0  0  0
   20.1889   18.0681   20.8734 C   0  0  0  0  0  0  0  0  0  0  0  0
   20.4001   17.5455   21.8149 H   0  0  0  0  0  0  0  0  0  0  0  0
   20.7282   17.5116   20.0947 H   0  0  0  0  0  0  0  0  0  0  0  0
   18.6780   18.0145   20.5579 C   0  0  0  0  0  0  0  0  0  0  0  0
   18.3408   16.9738   20.4689 H   0  0  0  0  0  0  0  0  0  0  0  0
   18.4577   18.5236   19.6107 H   0  0  0  0  0  0  0  0  0  0  0  0
   18.0850   18.4909   21.3481 H   0  0  0  0  0  0  0  0  0  0  0  0
  1  2  1  0  0  0  0
  1  3  2  0  0  0  0
  1  4  1  0  0  0  0
  4  5  1  0  0  0  0
  4  6  1  0  0  0  0
  4  7  1  0  0  0  0
  7  8  1  0  0  0  0
  7  9  1  0  0  0  0
  7 10  1  0  0  0  0
 10 11  1  0  0  0  0
 10 12  1  0  0  0  0
 10 13  1  0  0  0  0
 13 14  1  0  0  0  0
 13 15  1  0  0  0  0
 13 16  1  0  0  0  0
 16 17  1  0  0  0  0
 16 18  1  0  0  0  0
 16 19  1  0  0  0  0
 19 20  1  0  0  0  0
 19 21  1  0  0  0  0
 19 22  1  0  0  0  0
M  END
> <VM2 Rank>
58

> <Conf_Id>
189

> <Probability>
0.01

> <Sum Probability>
99.96

> <Delta G>
5.108

> <G>
-11.890

> <E>
-32.266

> <-TS>
20.376

> <U+W>
-50.151

> <U>
11.249

> <W>
-61.400

> <W(PB)>
-63.599

> <W(SA)>
2.199

> <Valence>
10.690

> <Coulomb>
-0.062

> <VdW>
0.621

> <VdW6>
-9.203

> <VdW12>
9.824

> <Bond>
0.231

> <Angle>
3.570

> <Pdih>
6.889

> <Idih>
0.001

> <Tether>
0.000

$$$$
VeraChem MOL file


 22 21  0  0  0  0  0  0  0  0999 V2000     
   19.5783   19.4196   25.5388 C   0  0  0  0  0  0  0  0  0  0  0  0
   20.0610   20.5269   25.6708 O   0  5  0  0  0  0  0  0  0  0  0  0
   19.2955   18.6936   26.4714 O   0  0  0  0  0  0  0  0  0  0  0  0
   19.3329   18.9041   24.1254 C   0  0  0  0  0  0  0  0  0  0  0  0
   19.0710   19.7620   23.4992 H   0  0  0  0  0  0  0  0  0  0  0  0
   18.4555   18.2471   24.1523 H   0  0  0  0  0  0  0  0  0  0  0  0
   20.5524   18.1403   23.5454 C   0  0  0  0  0  0  0  0  0  0  0  0
   21.4391   18.7891   23.5454 H   0  0  0  0  0  0  0  0  0  0  0  0
   20.7828   17.3091   24.2262 H   0  0  0  0  0  0  0  0  0  0  0  0
   20.3099   17.5614   22.1278 C   0  0  0  0  0  0  0  0  0  0  0  0
   19.2516   17.3024   21.9929 H   0  0  0  0  0  0  0  0  0  0  0  0
   20.8542   16.6099   22.0571 H   0  0  0  0  0  0  0  0  0  0  0  0
   20.8079   18.4598   20.9649 C   0  0  0  0  0  0  0  0  0  0  0  0
   21.8842   18.6384   21.0921 H   0  0  0  0  0  0  0  0  0  0  0  0
   20.7064   17.9013   20.0245 H   0  0  0  0  0  0  0  0  0  0  0  0
   20.0943   19.8232   20.8060 C   0  0  0  0  0  0  0  0  0  0  0  0
   20.5741   20.3732   19.9848 H   0  0  0  0  0  0  0  0  0  0  0  0
   20.2444   20.4358   21.7039 H   0  0  0  0  0  0  0  0  0  0  0  0
   18.5878   19.6902   20.4936 C   0  0  0  0  0  0  0  0  0  0  0  0
   18.0460   19.2148   21.3203 H   0  0  0  0  0  0  0  0  0  0  0  0
   18.4272   19.0894   19.5890 H   0  0  0  0  0  0  0  0  0  0  0  0
   18.1413   20.6788   20.3267 H   0  0  0  0  0  0  0  0  0  0  0  0
  1  2  1  0  0  0  0
  1  3  2  0  0  0  0
  1  4  1  0  0  0  0
  4  5  1  0  0  0  0
  4  6  1  0  0  0  0
  4  7  1  0  0  0  0
  7  8  1  0  0  0  0
  7  9  1  0  0  0  0
  7 10  1  0  0  0  0
 10 11  1  0  0  0  0
 10 12  1  0  0  0  0
 10 13  1  0  0  0  0
 13 14  1  0  0  0  0
 13 15  1  0  0  0  0
 13 16  1  0  0  0  0
 16 17  1  0  0  0  0
 16 18  1  0  0  0  0
 16 19  1  0  0  0  0
 19 20  1  0  0  0  0
 19 21  1  0  0  0  0
 19 22  1  0  0  0  0
M  END
> <VM2 Rank>
59

> <Conf_Id>
535

> <Probability>
0.01

> <Sum Probability>
99.97

> <Delta G>
5.183

> <G>
-11.815

> <E>
-32.191

> <-TS>
20.376

> <U+W>
-50.076

> <U>
11.249

> <W>
-61.325

> <W(PB)>
-63.519

> <W(SA)>
2.195

> <Valence>
10.690

> <Coulomb>
-0.062

> <VdW>
0.621

> <VdW6>
-9.203

> <VdW12>
9.824

> <Bond>
0.231

> <Angle>
3.570

> <Pdih>
6.888

> <Idih>
0.001

> <Tether>
0.000

$$$$
VeraChem MOL file


 22 21  0  0  0  0  0  0  0  0999 V2000     
   20.2309   19.2921   25.4805 C   0  0  0  0  0  0  0  0  0  0  0  0
   20.9001   20.3015   25.3818 O   0  5  0  0  0  0  0  0  0  0  0  0
   19.7062   18.9312   26.5155 O   0  0  0  0  0  0  0  0  0  0  0  0
   20.0218   18.4411   24.2332 C   0  0  0  0  0  0  0  0  0  0  0  0
   19.9305   17.3941   24.5456 H   0  0  0  0  0  0  0  0  0  0  0  0
   20.9271   18.5182   23.6212 H   0  0  0  0  0  0  0  0  0  0  0  0
   18.7715   18.8663   23.4199 C   0  0  0  0  0  0  0  0  0  0  0  0
   17.8941   18.8209   24.0796 H   0  0  0  0  0  0  0  0  0  0  0  0
   18.8614   19.9159   23.1127 H   0  0  0  0  0  0  0  0  0  0  0  0
   18.5054   17.9714   22.1856 C   0  0  0  0  0  0  0  0  0  0  0  0
   17.5623   18.2871   21.7191 H   0  0  0  0  0  0  0  0  0  0  0  0
   18.3392   16.9413   22.5292 H   0  0  0  0  0  0  0  0  0  0  0  0
   19.6172   17.9576   21.1033 C   0  0  0  0  0  0  0  0  0  0  0  0
   20.5563   17.5654   21.5147 H   0  0  0  0  0  0  0  0  0  0  0  0
   19.3115   17.2340   20.3355 H   0  0  0  0  0  0  0  0  0  0  0  0
   19.8584   19.3177   20.4009 C   0  0  0  0  0  0  0  0  0  0  0  0
   18.9326   19.9091   20.3870 H   0  0  0  0  0  0  0  0  0  0  0  0
   20.1129   19.1255   19.3494 H   0  0  0  0  0  0  0  0  0  0  0  0
   21.0086   20.1401   21.0233 C   0  0  0  0  0  0  0  0  0  0  0  0
   21.9472   19.5711   21.0121 H   0  0  0  0  0  0  0  0  0  0  0  0
   20.7956   20.4227   22.0604 H   0  0  0  0  0  0  0  0  0  0  0  0
   21.1698   21.0645   20.4540 H   0  0  0  0  0  0  0  0  0  0  0  0
  1  2  1  0  0  0  0
  1  3  2  0  0  0  0
  1  4  1  0  0  0  0
  4  5  1  0  0  0  0
  4  6  1  0  0  0  0
  4  7  1  0  0  0  0
  7  8  1  0  0  0  0
  7  9  1  0  0  0  0
  7 10  1  0  0  0  0
 10 11  1  0  0  0  0
 10 12  1  0  0  0  0
 10 13  1  0  0  0  0
 13 14  1  0  0  0  0
 13 15  1  0  0  0  0
 13 16  1  0  0  0  0
 16 17  1  0  0  0  0
 16 18  1  0  0  0  0
 16 19  1  0  0  0  0
 19 20  1  0  0  0  0
 19 21  1  0  0  0  0
 19 22  1  0  0  0  0
M  END
> <VM2 Rank>
60

> <Conf_Id>
111

> <Probability>
0.00

> <Sum Probability>
99.97

> <Delta G>
5.351

> <G>
-11.648

> <E>
-32.062

> <-TS>
20.414

> <U+W>
-49.947

> <U>
11.583

> <W>
-61.530

> <W(PB)>
-63.714

> <W(SA)>
2.184

> <Valence>
10.661

> <Coulomb>
0.424

> <VdW>
0.498

> <VdW6>
-9.423

> <VdW12>
9.921

> <Bond>
0.226

> <Angle>
3.567

> <Pdih>
6.867

> <Idih>
0.001

> <Tether>
0.000

$$$$
VeraChem MOL file


 22 21  0  0  0  0  0  0  0  0999 V2000     
   19.7837   19.3273   25.5844 C   0  0  0  0  0  0  0  0  0  0  0  0
   19.8612   20.5346   25.6996 O   0  5  0  0  0  0  0  0  0  0  0  0
   18.9058   18.6585   26.0932 O   0  0  0  0  0  0  0  0  0  0  0  0
   20.8622   18.6112   24.7762 C   0  0  0  0  0  0  0  0  0  0  0  0
   20.8698   17.5527   25.0631 H   0  0  0  0  0  0  0  0  0  0  0  0
   21.8302   19.0285   25.0776 H   0  0  0  0  0  0  0  0  0  0  0  0
   20.6943   18.7497   23.2407 C   0  0  0  0  0  0  0  0  0  0  0  0
   20.6694   19.8165   22.9824 H   0  0  0  0  0  0  0  0  0  0  0  0
   21.5733   18.3175   22.7440 H   0  0  0  0  0  0  0  0  0  0  0  0
   19.4168   18.0525   22.7191 C   0  0  0  0  0  0  0  0  0  0  0  0
   18.5303   18.5546   23.1304 H   0  0  0  0  0  0  0  0  0  0  0  0
   19.3909   17.0232   23.1019 H   0  0  0  0  0  0  0  0  0  0  0  0
   19.3056   18.0001   21.1747 C   0  0  0  0  0  0  0  0  0  0  0  0
   20.1392   17.4201   20.7557 H   0  0  0  0  0  0  0  0  0  0  0  0
   18.3961   17.4352   20.9287 H   0  0  0  0  0  0  0  0  0  0  0  0
   19.2139   19.3840   20.4845 C   0  0  0  0  0  0  0  0  0  0  0  0
   18.7585   20.1185   21.1630 H   0  0  0  0  0  0  0  0  0  0  0  0
   18.5364   19.3024   19.6234 H   0  0  0  0  0  0  0  0  0  0  0  0
   20.5765   19.9012   19.9716 C   0  0  0  0  0  0  0  0  0  0  0  0
   21.2984   20.0271   20.7864 H   0  0  0  0  0  0  0  0  0  0  0  0
   20.4562   20.8739   19.4776 H   0  0  0  0  0  0  0  0  0  0  0  0
   21.0083   19.2049   19.2410 H   0  0  0  0  0  0  0  0  0  0  0  0
  1  2  1  0  0  0  0
  1  3  2  0  0  0  0
  1  4  1  0  0  0  0
  4  5  1  0  0  0  0
  4  6  1  0  0  0  0
  4  7  1  0  0  0  0
  7  8  1  0  0  0  0
  7  9  1  0  0  0  0
  7 10  1  0  0  0  0
 10 11  1  0  0  0  0
 10 12  1  0  0  0  0
 10 13  1  0  0  0  0
 13 14  1  0  0  0  0
 13 15  1  0  0  0  0
 13 16  1  0  0  0  0
 16 17  1  0  0  0  0
 16 18  1  0  0  0  0
 16 19  1  0  0  0  0
 19 20  1  0  0  0  0
 19 21  1  0  0  0  0
 19 22  1  0  0  0  0
M  END
> <VM2 Rank>
61

> <Conf_Id>
507

> <Probability>
0.00

> <Sum Probability>
99.98

> <Delta G>
5.363

> <G>
-11.636

> <E>
-31.838

> <-TS>
20.203

> <U+W>
-49.723

> <U>
12.072

> <W>
-61.795

> <W(PB)>
-64.020

> <W(SA)>
2.226

> <Valence>
10.343

> <Coulomb>
1.036

> <VdW>
0.692

> <VdW6>
-8.924

> <VdW12>
9.616

> <Bond>
0.196

> <Angle>
3.145

> <Pdih>
7.002

> <Idih>
0.001

> <Tether>
0.000

$$$$
VeraChem MOL file


 22 21  0  0  0  0  0  0  0  0999 V2000     
   19.9047   19.0460   25.7127 C   0  0  0  0  0  0  0  0  0  0  0  0
   18.9044   19.5661   26.1664 O   0  5  0  0  0  0  0  0  0  0  0  0
   20.3378   17.9763   26.0937 O   0  0  0  0  0  0  0  0  0  0  0  0
   20.6734   19.7857   24.6213 C   0  0  0  0  0  0  0  0  0  0  0  0
   21.7357   19.7529   24.8905 H   0  0  0  0  0  0  0  0  0  0  0  0
   20.3748   20.8410   24.6354 H   0  0  0  0  0  0  0  0  0  0  0  0
   20.4820   19.1941   23.2004 C   0  0  0  0  0  0  0  0  0  0  0  0
   21.1886   19.6888   22.5222 H   0  0  0  0  0  0  0  0  0  0  0  0
   20.7397   18.1261   23.2118 H   0  0  0  0  0  0  0  0  0  0  0  0
   19.0432   19.3828   22.6660 C   0  0  0  0  0  0  0  0  0  0  0  0
   18.8249   20.4557   22.5770 H   0  0  0  0  0  0  0  0  0  0  0  0
   18.3303   18.9850   23.4011 H   0  0  0  0  0  0  0  0  0  0  0  0
   18.7726   18.6875   21.3081 C   0  0  0  0  0  0  0  0  0  0  0  0
   18.8980   17.6009   21.4100 H   0  0  0  0  0  0  0  0  0  0  0  0
   17.7130   18.8434   21.0634 H   0  0  0  0  0  0  0  0  0  0  0  0
   19.6226   19.2176   20.1265 C   0  0  0  0  0  0  0  0  0  0  0  0
   19.9045   20.2653   20.2994 H   0  0  0  0  0  0  0  0  0  0  0  0
   19.0030   19.2141   19.2190 H   0  0  0  0  0  0  0  0  0  0  0  0
   20.8794   18.3630   19.8489 C   0  0  0  0  0  0  0  0  0  0  0  0
   21.5533   18.3349   20.7126 H   0  0  0  0  0  0  0  0  0  0  0  0
   21.4410   18.7711   18.9987 H   0  0  0  0  0  0  0  0  0  0  0  0
   20.6019   17.3298   19.6028 H   0  0  0  0  0  0  0  0  0  0  0  0
  1  2  1  0  0  0  0
  1  3  2  0  0  0  0
  1  4  1  0  0  0  0
  4  5  1  0  0  0  0
  4  6  1  0  0  0  0
  4  7  1  0  0  0  0
  7  8  1  0  0  0  0
  7  9  1  0  0  0  0
  7 10  1  0  0  0  0
 10 11  1  0  0  0  0
 10 12  1  0  0  0  0
 10 13  1  0  0  0  0
 13 14  1  0  0  0  0
 13 15  1  0  0  0  0
 13 16  1  0  0  0  0
 16 17  1  0  0  0  0
 16 18  1  0  0  0  0
 16 19  1  0  0  0  0
 19 20  1  0  0  0  0
 19 21  1  0  0  0  0
 19 22  1  0  0  0  0
M  END
> <VM2 Rank>
62

> <Conf_Id>
250

> <Probability>
0.00

> <Sum Probability>
99.98

> <Delta G>
5.403

> <G>
-11.596

> <E>
-31.833

> <-TS>
20.238

> <U+W>
-49.718

> <U>
11.773

> <W>
-61.491

> <W(PB)>
-63.745

> <W(SA)>
2.254

> <Valence>
10.419

> <Coulomb>
0.565

> <VdW>
0.789

> <VdW6>
-8.847

> <VdW12>
9.636

> <Bond>
0.200

> <Angle>
3.187

> <Pdih>
7.032

> <Idih>
0.001

> <Tether>
0.000

$$$$
VeraChem MOL file


 22 21  0  0  0  0  0  0  0  0999 V2000     
   19.7160   19.1506   25.7186 C   0  0  0  0  0  0  0  0  0  0  0  0
   19.8241   20.3368   25.9601 O   0  5  0  0  0  0  0  0  0  0  0  0
   20.2894   18.2820   26.3460 O   0  0  0  0  0  0  0  0  0  0  0  0
   18.7948   18.7252   24.5786 C   0  0  0  0  0  0  0  0  0  0  0  0
   18.1109   19.5525   24.3534 H   0  0  0  0  0  0  0  0  0  0  0  0
   18.1792   17.8960   24.9466 H   0  0  0  0  0  0  0  0  0  0  0  0
   19.5419   18.2844   23.2931 C   0  0  0  0  0  0  0  0  0  0  0  0
   20.2426   17.4751   23.5411 H   0  0  0  0  0  0  0  0  0  0  0  0
   18.8144   17.8606   22.5911 H   0  0  0  0  0  0  0  0  0  0  0  0
   20.3097   19.4500   22.6232 C   0  0  0  0  0  0  0  0  0  0  0  0
   21.0677   19.8155   23.3296 H   0  0  0  0  0  0  0  0  0  0  0  0
   19.6341   20.2960   22.4371 H   0  0  0  0  0  0  0  0  0  0  0  0
   21.0230   19.0396   21.3100 C   0  0  0  0  0  0  0  0  0  0  0  0
   21.9750   19.5849   21.2540 H   0  0  0  0  0  0  0  0  0  0  0  0
   21.2906   17.9745   21.3384 H   0  0  0  0  0  0  0  0  0  0  0  0
   20.2293   19.3548   20.0179 C   0  0  0  0  0  0  0  0  0  0  0  0
   20.8573   19.1019   19.1526 H   0  0  0  0  0  0  0  0  0  0  0  0
   20.0418   20.4357   19.9558 H   0  0  0  0  0  0  0  0  0  0  0  0
   18.8918   18.5956   19.8965 C   0  0  0  0  0  0  0  0  0  0  0  0
   18.4411   18.7675   18.9105 H   0  0  0  0  0  0  0  0  0  0  0  0
   18.1733   18.9369   20.6521 H   0  0  0  0  0  0  0  0  0  0  0  0
   19.0398   17.5147   20.0176 H   0  0  0  0  0  0  0  0  0  0  0  0
  1  2  1  0  0  0  0
  1  3  2  0  0  0  0
  1  4  1  0  0  0  0
  4  5  1  0  0  0  0
  4  6  1  0  0  0  0
  4  7  1  0  0  0  0
  7  8  1  0  0  0  0
  7  9  1  0  0  0  0
  7 10  1  0  0  0  0
 10 11  1  0  0  0  0
 10 12  1  0  0  0  0
 10 13  1  0  0  0  0
 13 14  1  0  0  0  0
 13 15  1  0  0  0  0
 13 16  1  0  0  0  0
 16 17  1  0  0  0  0
 16 18  1  0  0  0  0
 16 19  1  0  0  0  0
 19 20  1  0  0  0  0
 19 21  1  0  0  0  0
 19 22  1  0  0  0  0
M  END
> <VM2 Rank>
63

> <Conf_Id>
380

> <Probability>
0.00

> <Sum Probability>
99.98

> <Delta G>
5.403

> <G>
-11.595

> <E>
-31.810

> <-TS>
20.215

> <U+W>
-49.695

> <U>
11.659

> <W>
-61.353

> <W(PB)>
-63.612

> <W(SA)>
2.259

> <Valence>
10.364

> <Coulomb>
0.563

> <VdW>
0.732

> <VdW6>
-8.874

> <VdW12>
9.606

> <Bond>
0.201

> <Angle>
3.127

> <Pdih>
7.036

> <Idih>
0.001

> <Tether>
0.000

$$$$
VeraChem MOL file


 22 21  0  0  0  0  0  0  0  0999 V2000     
   19.8968   19.1930   25.7071 C   0  0  0  0  0  0  0  0  0  0  0  0
   20.2106   20.3291   26.0034 O   0  5  0  0  0  0  0  0  0  0  0  0
   18.9564   18.6045   26.2033 O   0  0  0  0  0  0  0  0  0  0  0  0
   20.7451   18.4590   24.6722 C   0  0  0  0  0  0  0  0  0  0  0  0
   20.5616   17.3820   24.7680 H   0  0  0  0  0  0  0  0  0  0  0  0
   21.7965   18.6263   24.9337 H   0  0  0  0  0  0  0  0  0  0  0  0
   20.4970   18.9164   23.2110 C   0  0  0  0  0  0  0  0  0  0  0  0
   20.6384   20.0037   23.1398 H   0  0  0  0  0  0  0  0  0  0  0  0
   21.2554   18.4502   22.5697 H   0  0  0  0  0  0  0  0  0  0  0  0
   19.0891   18.5340   22.6986 C   0  0  0  0  0  0  0  0  0  0  0  0
   18.3345   18.9079   23.4041 H   0  0  0  0  0  0  0  0  0  0  0  0
   18.9877   17.4402   22.6927 H   0  0  0  0  0  0  0  0  0  0  0  0
   18.7508   19.0904   21.2927 C   0  0  0  0  0  0  0  0  0  0  0  0
   17.7151   18.8034   21.0651 H   0  0  0  0  0  0  0  0  0  0  0  0
   18.7585   20.1888   21.3108 H   0  0  0  0  0  0  0  0  0  0  0  0
   19.6577   18.5659   20.1515 C   0  0  0  0  0  0  0  0  0  0  0  0
   19.0450   18.4334   19.2490 H   0  0  0  0  0  0  0  0  0  0  0  0
   20.0498   17.5708   20.4029 H   0  0  0  0  0  0  0  0  0  0  0  0
   20.8166   19.5268   19.8041 C   0  0  0  0  0  0  0  0  0  0  0  0
   20.4306   20.5023   19.4808 H   0  0  0  0  0  0  0  0  0  0  0  0
   21.4222   19.1175   18.9853 H   0  0  0  0  0  0  0  0  0  0  0  0
   21.4800   19.6931   20.6604 H   0  0  0  0  0  0  0  0  0  0  0  0
  1  2  1  0  0  0  0
  1  3  2  0  0  0  0
  1  4  1  0  0  0  0
  4  5  1  0  0  0  0
  4  6  1  0  0  0  0
  4  7  1  0  0  0  0
  7  8  1  0  0  0  0
  7  9  1  0  0  0  0
  7 10  1  0  0  0  0
 10 11  1  0  0  0  0
 10 12  1  0  0  0  0
 10 13  1  0  0  0  0
 13 14  1  0  0  0  0
 13 15  1  0  0  0  0
 13 16  1  0  0  0  0
 16 17  1  0  0  0  0
 16 18  1  0  0  0  0
 16 19  1  0  0  0  0
 19 20  1  0  0  0  0
 19 21  1  0  0  0  0
 19 22  1  0  0  0  0
M  END
> <VM2 Rank>
64

> <Conf_Id>
254

> <Probability>
0.00

> <Sum Probability>
99.99

> <Delta G>
5.428

> <G>
-11.570

> <E>
-31.807

> <-TS>
20.237

> <U+W>
-49.692

> <U>
11.773

> <W>
-61.466

> <W(PB)>
-63.714

> <W(SA)>
2.248

> <Valence>
10.419

> <Coulomb>
0.565

> <VdW>
0.789

> <VdW6>
-8.847

> <VdW12>
9.636

> <Bond>
0.200

> <Angle>
3.187

> <Pdih>
7.033

> <Idih>
0.001

> <Tether>
0.000

$$$$
VeraChem MOL file


 22 21  0  0  0  0  0  0  0  0999 V2000     
   19.8969   19.1956   25.7188 C   0  0  0  0  0  0  0  0  0  0  0  0
   19.2462   20.1934   25.9593 O   0  5  0  0  0  0  0  0  0  0  0  0
   19.7947   18.1593   26.3455 O   0  0  0  0  0  0  0  0  0  0  0  0
   20.9130   19.2509   24.5815 C   0  0  0  0  0  0  0  0  0  0  0  0
   21.8439   18.8055   24.9516 H   0  0  0  0  0  0  0  0  0  0  0  0
   21.1313   20.3021   24.3575 H   0  0  0  0  0  0  0  0  0  0  0  0
   20.4620   18.5126   23.2943 C   0  0  0  0  0  0  0  0  0  0  0  0
   21.3051   18.4787   22.5945 H   0  0  0  0  0  0  0  0  0  0  0  0
   20.2205   17.4695   23.5411 H   0  0  0  0  0  0  0  0  0  0  0  0
   19.2400   19.1843   22.6218 C   0  0  0  0  0  0  0  0  0  0  0  0
   19.4419   20.2482   22.4369 H   0  0  0  0  0  0  0  0  0  0  0  0
   18.3972   19.1524   23.3259 H   0  0  0  0  0  0  0  0  0  0  0  0
   18.8049   18.4889   21.3069 C   0  0  0  0  0  0  0  0  0  0  0  0
   19.0664   17.4223   21.3352 H   0  0  0  0  0  0  0  0  0  0  0  0
   17.7085   18.5257   21.2480 H   0  0  0  0  0  0  0  0  0  0  0  0
   19.3624   19.1397   20.0168 C   0  0  0  0  0  0  0  0  0  0  0  0
   19.0228   20.1828   19.9545 H   0  0  0  0  0  0  0  0  0  0  0  0
   18.9279   18.6230   19.1499 H   0  0  0  0  0  0  0  0  0  0  0  0
   20.9000   19.0943   19.8993 C   0  0  0  0  0  0  0  0  0  0  0  0
   21.3734   19.7315   20.6566 H   0  0  0  0  0  0  0  0  0  0  0  0
   21.2205   19.4577   18.9144 H   0  0  0  0  0  0  0  0  0  0  0  0
   21.2744   18.0696   20.0207 H   0  0  0  0  0  0  0  0  0  0  0  0
  1  2  1  0  0  0  0
  1  3  2  0  0  0  0
  1  4  1  0  0  0  0
  4  5  1  0  0  0  0
  4  6  1  0  0  0  0
  4  7  1  0  0  0  0
  7  8  1  0  0  0  0
  7  9  1  0  0  0  0
  7 10  1  0  0  0  0
 10 11  1  0  0  0  0
 10 12  1  0  0  0  0
 10 13  1  0  0  0  0
 13 14  1  0  0  0  0
 13 15  1  0  0  0  0
 13 16  1  0  0  0  0
 16 17  1  0  0  0  0
 16 18  1  0  0  0  0
 16 19  1  0  0  0  0
 19 20  1  0  0  0  0
 19 21  1  0  0  0  0
 19 22  1  0  0  0  0
M  END
> <VM2 Rank>
65

> <Conf_Id>
57

> <Probability>
0.00

> <Sum Probability>
99.99

> <Delta G>
5.437

> <G>
-11.562

> <E>
-31.777

> <-TS>
20.215

> <U+W>
-49.661

> <U>
11.658

> <W>
-61.320

> <W(PB)>
-63.557

> <W(SA)>
2.236

> <Valence>
10.364

> <Coulomb>
0.562

> <VdW>
0.732

> <VdW6>
-8.874

> <VdW12>
9.606

> <Bond>
0.201

> <Angle>
3.127

> <Pdih>
7.036

> <Idih>
0.001

> <Tether>
0.000

$$$$
VeraChem MOL file


 22 21  0  0  0  0  0  0  0  0999 V2000     
   20.1271   18.9419   25.4916 C   0  0  0  0  0  0  0  0  0  0  0  0
   19.5716   19.4139   26.4642 O   0  5  0  0  0  0  0  0  0  0  0  0
   20.4824   17.7820   25.4183 O   0  0  0  0  0  0  0  0  0  0  0  0
   20.4157   19.8642   24.3101 C   0  0  0  0  0  0  0  0  0  0  0  0
   21.1767   19.3909   23.6817 H   0  0  0  0  0  0  0  0  0  0  0  0
   20.8671   20.7773   24.7153 H   0  0  0  0  0  0  0  0  0  0  0  0
   19.1565   20.2386   23.4798 C   0  0  0  0  0  0  0  0  0  0  0  0
   18.4051   20.6481   24.1692 H   0  0  0  0  0  0  0  0  0  0  0  0
   19.3988   21.0508   22.7813 H   0  0  0  0  0  0  0  0  0  0  0  0
   18.5281   19.0507   22.7053 C   0  0  0  0  0  0  0  0  0  0  0  0
   17.4380   19.1862   22.7003 H   0  0  0  0  0  0  0  0  0  0  0  0
   18.7073   18.1062   23.2368 H   0  0  0  0  0  0  0  0  0  0  0  0
   18.9875   18.9230   21.2311 C   0  0  0  0  0  0  0  0  0  0  0  0
   18.4204   18.1060   20.7645 H   0  0  0  0  0  0  0  0  0  0  0  0
   18.7182   19.8364   20.6834 H   0  0  0  0  0  0  0  0  0  0  0  0
   20.4966   18.6468   21.0577 C   0  0  0  0  0  0  0  0  0  0  0  0
   20.7919   17.7916   21.6814 H   0  0  0  0  0  0  0  0  0  0  0  0
   21.0755   19.5146   21.3994 H   0  0  0  0  0  0  0  0  0  0  0  0
   20.8545   18.3579   19.5859 C   0  0  0  0  0  0  0  0  0  0  0  0
   20.3206   17.4719   19.2179 H   0  0  0  0  0  0  0  0  0  0  0  0
   21.9312   18.1728   19.4791 H   0  0  0  0  0  0  0  0  0  0  0  0
   20.5912   19.2086   18.9438 H   0  0  0  0  0  0  0  0  0  0  0  0
  1  2  1  0  0  0  0
  1  3  2  0  0  0  0
  1  4  1  0  0  0  0
  4  5  1  0  0  0  0
  4  6  1  0  0  0  0
  4  7  1  0  0  0  0
  7  8  1  0  0  0  0
  7  9  1  0  0  0  0
  7 10  1  0  0  0  0
 10 11  1  0  0  0  0
 10 12  1  0  0  0  0
 10 13  1  0  0  0  0
 13 14  1  0  0  0  0
 13 15  1  0  0  0  0
 13 16  1  0  0  0  0
 16 17  1  0  0  0  0
 16 18  1  0  0  0  0
 16 19  1  0  0  0  0
 19 20  1  0  0  0  0
 19 21  1  0  0  0  0
 19 22  1  0  0  0  0
M  END
> <VM2 Rank>
66

> <Conf_Id>
127

> <Probability>
0.00

> <Sum Probability>
99.99

> <Delta G>
5.510

> <G>
-11.489

> <E>
-31.789

> <-TS>
20.300

> <U+W>
-49.673

> <U>
11.908

> <W>
-61.582

> <W(PB)>
-63.808

> <W(SA)>
2.226

> <Valence>
10.449

> <Coulomb>
0.769

> <VdW>
0.691

> <VdW6>
-9.053

> <VdW12>
9.744

> <Bond>
0.222

> <Angle>
3.228

> <Pdih>
6.998

> <Idih>
0.001

> <Tether>
0.000

$$$$
VeraChem MOL file


 22 21  0  0  0  0  0  0  0  0999 V2000     
   20.1639   19.1739   25.4235 C   0  0  0  0  0  0  0  0  0  0  0  0
   20.9316   20.1147   25.4713 O   0  5  0  0  0  0  0  0  0  0  0  0
   20.4402   18.0595   25.8220 O   0  0  0  0  0  0  0  0  0  0  0  0
   18.7665   19.4139   24.8584 C   0  0  0  0  0  0  0  0  0  0  0  0
   18.3865   20.3396   25.3064 H   0  0  0  0  0  0  0  0  0  0  0  0
   18.1079   18.6042   25.1949 H   0  0  0  0  0  0  0  0  0  0  0  0
   18.7253   19.5320   23.3128 C   0  0  0  0  0  0  0  0  0  0  0  0
   17.7190   19.8489   23.0076 H   0  0  0  0  0  0  0  0  0  0  0  0
   19.4109   20.3272   22.9960 H   0  0  0  0  0  0  0  0  0  0  0  0
   19.0719   18.1984   22.6069 C   0  0  0  0  0  0  0  0  0  0  0  0
   18.3415   17.4425   22.9262 H   0  0  0  0  0  0  0  0  0  0  0  0
   20.0537   17.8312   22.9360 H   0  0  0  0  0  0  0  0  0  0  0  0
   19.0361   18.2963   21.0606 C   0  0  0  0  0  0  0  0  0  0  0  0
   18.6468   17.3475   20.6670 H   0  0  0  0  0  0  0  0  0  0  0  0
   18.3204   19.0671   20.7435 H   0  0  0  0  0  0  0  0  0  0  0  0
   20.4138   18.5452   20.3984 C   0  0  0  0  0  0  0  0  0  0  0  0
   20.2862   18.5211   19.3074 H   0  0  0  0  0  0  0  0  0  0  0  0
   21.0953   17.7198   20.6464 H   0  0  0  0  0  0  0  0  0  0  0  0
   21.0707   19.8851   20.7902 C   0  0  0  0  0  0  0  0  0  0  0  0
   21.3613   19.8885   21.8485 H   0  0  0  0  0  0  0  0  0  0  0  0
   20.3876   20.7258   20.6129 H   0  0  0  0  0  0  0  0  0  0  0  0
   21.9789   20.0552   20.1977 H   0  0  0  0  0  0  0  0  0  0  0  0
  1  2  1  0  0  0  0
  1  3  2  0  0  0  0
  1  4  1  0  0  0  0
  4  5  1  0  0  0  0
  4  6  1  0  0  0  0
  4  7  1  0  0  0  0
  7  8  1  0  0  0  0
  7  9  1  0  0  0  0
  7 10  1  0  0  0  0
 10 11  1  0  0  0  0
 10 12  1  0  0  0  0
 10 13  1  0  0  0  0
 13 14  1  0  0  0  0
 13 15  1  0  0  0  0
 13 16  1  0  0  0  0
 16 17  1  0  0  0  0
 16 18  1  0  0  0  0
 16 19  1  0  0  0  0
 19 20  1  0  0  0  0
 19 21  1  0  0  0  0
 19 22  1  0  0  0  0
M  END
> <VM2 Rank>
67

> <Conf_Id>
162

> <Probability>
0.00

> <Sum Probability>
100.00

> <Delta G>
5.657

> <G>
-11.341

> <E>
-31.598

> <-TS>
20.257

> <U+W>
-49.483

> <U>
12.672

> <W>
-62.155

> <W(PB)>
-64.363

> <W(SA)>
2.207

> <Valence>
10.318

> <Coulomb>
1.786

> <VdW>
0.569

> <VdW6>
-9.119

> <VdW12>
9.688

> <Bond>
0.199

> <Angle>
3.116

> <Pdih>
7.003

> <Idih>
0.001

> <Tether>
0.000

$$$$
VeraChem MOL file


 22 21  0  0  0  0  0  0  0  0999 V2000     
   20.3303   19.1314   24.9602 C   0  0  0  0  0  0  0  0  0  0  0  0
   20.8796   20.2149   25.0023 O   0  5  0  0  0  0  0  0  0  0  0  0
   20.9246   18.0742   25.0428 O   0  0  0  0  0  0  0  0  0  0  0  0
   18.8038   19.0989   24.9159 C   0  0  0  0  0  0  0  0  0  0  0  0
   18.4226   20.1254   24.9778 H   0  0  0  0  0  0  0  0  0  0  0  0
   18.4805   18.5891   25.8309 H   0  0  0  0  0  0  0  0  0  0  0  0
   18.1912   18.3680   23.6882 C   0  0  0  0  0  0  0  0  0  0  0  0
   18.7368   17.4352   23.4937 H   0  0  0  0  0  0  0  0  0  0  0  0
   17.1703   18.0627   23.9542 H   0  0  0  0  0  0  0  0  0  0  0  0
   18.0985   19.2287   22.4011 C   0  0  0  0  0  0  0  0  0  0  0  0
   17.5037   20.1267   22.6165 H   0  0  0  0  0  0  0  0  0  0  0  0
   17.5314   18.6673   21.6461 H   0  0  0  0  0  0  0  0  0  0  0  0
   19.4480   19.6634   21.7788 C   0  0  0  0  0  0  0  0  0  0  0  0
   19.2361   20.2918   20.9031 H   0  0  0  0  0  0  0  0  0  0  0  0
   19.9995   20.3014   22.4808 H   0  0  0  0  0  0  0  0  0  0  0  0
   20.3349   18.4774   21.3376 C   0  0  0  0  0  0  0  0  0  0  0  0
   19.7658   17.8162   20.6699 H   0  0  0  0  0  0  0  0  0  0  0  0
   20.6256   17.8791   22.2115 H   0  0  0  0  0  0  0  0  0  0  0  0
   21.6090   18.9621   20.6171 C   0  0  0  0  0  0  0  0  0  0  0  0
   21.3577   19.5371   19.7164 H   0  0  0  0  0  0  0  0  0  0  0  0
   22.2297   18.1092   20.3136 H   0  0  0  0  0  0  0  0  0  0  0  0
   22.2105   19.6015   21.2767 H   0  0  0  0  0  0  0  0  0  0  0  0
  1  2  1  0  0  0  0
  1  3  2  0  0  0  0
  1  4  1  0  0  0  0
  4  5  1  0  0  0  0
  4  6  1  0  0  0  0
  4  7  1  0  0  0  0
  7  8  1  0  0  0  0
  7  9  1  0  0  0  0
  7 10  1  0  0  0  0
 10 11  1  0  0  0  0
 10 12  1  0  0  0  0
 10 13  1  0  0  0  0
 13 14  1  0  0  0  0
 13 15  1  0  0  0  0
 13 16  1  0  0  0  0
 16 17  1  0  0  0  0
 16 18  1  0  0  0  0
 16 19  1  0  0  0  0
 19 20  1  0  0  0  0
 19 21  1  0  0  0  0
 19 22  1  0  0  0  0
M  END
> <VM2 Rank>
68

> <Conf_Id>
565

> <Probability>
0.00

> <Sum Probability>
100.00

> <Delta G>
6.107

> <G>
-10.892

> <E>
-31.761

> <-TS>
20.869

> <U+W>
-49.646

> <U>
12.940

> <W>
-62.586

> <W(PB)>
-64.782

> <W(SA)>
2.196

> <Valence>
9.684

> <Coulomb>
3.147

> <VdW>
0.109

> <VdW6>
-10.251

> <VdW12>
10.360

> <Bond>
0.223

> <Angle>
3.698

> <Pdih>
5.745

> <Idih>
0.018

> <Tether>
0.000

$$$$
VeraChem MOL file


 22 21  0  0  0  0  0  0  0  0999 V2000     
   20.1038   19.4351   25.1796 C   0  0  0  0  0  0  0  0  0  0  0  0
   20.9498   20.2305   24.8218 O   0  5  0  0  0  0  0  0  0  0  0  0
   20.2334   18.7095   26.1462 O   0  0  0  0  0  0  0  0  0  0  0  0
   18.7870   19.3795   24.4077 C   0  0  0  0  0  0  0  0  0  0  0  0
   18.7859   20.1612   23.6406 H   0  0  0  0  0  0  0  0  0  0  0  0
   17.9915   19.6411   25.1150 H   0  0  0  0  0  0  0  0  0  0  0  0
   18.4724   17.9959   23.7780 C   0  0  0  0  0  0  0  0  0  0  0  0
   18.4379   17.2479   24.5822 H   0  0  0  0  0  0  0  0  0  0  0  0
   17.4641   18.0195   23.3433 H   0  0  0  0  0  0  0  0  0  0  0  0
   19.4799   17.5179   22.7013 C   0  0  0  0  0  0  0  0  0  0  0  0
   19.2191   16.4817   22.4462 H   0  0  0  0  0  0  0  0  0  0  0  0
   20.4950   17.4735   23.1194 H   0  0  0  0  0  0  0  0  0  0  0  0
   19.4659   18.3475   21.3919 C   0  0  0  0  0  0  0  0  0  0  0  0
   19.6000   17.6603   20.5453 H   0  0  0  0  0  0  0  0  0  0  0  0
   18.4829   18.8169   21.2507 H   0  0  0  0  0  0  0  0  0  0  0  0
   20.5830   19.4135   21.3247 C   0  0  0  0  0  0  0  0  0  0  0  0
   21.5626   18.9285   21.4349 H   0  0  0  0  0  0  0  0  0  0  0  0
   20.4897   20.1218   22.1564 H   0  0  0  0  0  0  0  0  0  0  0  0
   20.5448   20.1895   19.9927 C   0  0  0  0  0  0  0  0  0  0  0  0
   21.3460   20.9392   19.9593 H   0  0  0  0  0  0  0  0  0  0  0  0
   19.5868   20.7117   19.8705 H   0  0  0  0  0  0  0  0  0  0  0  0
   20.6782   19.5123   19.1389 H   0  0  0  0  0  0  0  0  0  0  0  0
  1  2  1  0  0  0  0
  1  3  2  0  0  0  0
  1  4  1  0  0  0  0
  4  5  1  0  0  0  0
  4  6  1  0  0  0  0
  4  7  1  0  0  0  0
  7  8  1  0  0  0  0
  7  9  1  0  0  0  0
  7 10  1  0  0  0  0
 10 11  1  0  0  0  0
 10 12  1  0  0  0  0
 10 13  1  0  0  0  0
 13 14  1  0  0  0  0
 13 15  1  0  0  0  0
 13 16  1  0  0  0  0
 16 17  1  0  0  0  0
 16 18  1  0  0  0  0
 16 19  1  0  0  0  0
 19 20  1  0  0  0  0
 19 21  1  0  0  0  0
 19 22  1  0  0  0  0
M  END
> <VM2 Rank>
69

> <Conf_Id>
153

> <Probability>
0.00

> <Sum Probability>
100.00

> <Delta G>
6.216

> <G>
-10.783

> <E>
-31.080

> <-TS>
20.297

> <U+W>
-48.965

> <U>
13.118

> <W>
-62.083

> <W(PB)>
-64.298

> <W(SA)>
2.215

> <Valence>
10.731

> <Coulomb>
2.057

> <VdW>
0.330

> <VdW6>
-9.569

> <VdW12>
9.899

> <Bond>
0.211

> <Angle>
3.393

> <Pdih>
7.123

> <Idih>
0.004

> <Tether>
0.000

$$$$
VeraChem MOL file


 22 21  0  0  0  0  0  0  0  0999 V2000     
   20.1995   19.0964   25.1075 C   0  0  0  0  0  0  0  0  0  0  0  0
   20.5589   20.2247   25.3817 O   0  5  0  0  0  0  0  0  0  0  0  0
   20.9318   18.1277   25.1621 O   0  0  0  0  0  0  0  0  0  0  0  0
   18.7244   18.8679   24.7845 C   0  0  0  0  0  0  0  0  0  0  0  0
   18.1775   19.8072   24.9304 H   0  0  0  0  0  0  0  0  0  0  0  0
   18.3488   18.1668   25.5388 H   0  0  0  0  0  0  0  0  0  0  0  0
   18.4363   18.2892   23.3706 C   0  0  0  0  0  0  0  0  0  0  0  0
   19.1405   17.4777   23.1439 H   0  0  0  0  0  0  0  0  0  0  0  0
   17.4433   17.8208   23.3958 H   0  0  0  0  0  0  0  0  0  0  0  0
   18.4261   19.3404   22.2303 C   0  0  0  0  0  0  0  0  0  0  0  0
   17.6962   20.1234   22.4764 H   0  0  0  0  0  0  0  0  0  0  0  0
   18.0480   18.8637   21.3166 H   0  0  0  0  0  0  0  0  0  0  0  0
   19.7882   20.0129   21.9190 C   0  0  0  0  0  0  0  0  0  0  0  0
   19.6429   20.7311   21.1009 H   0  0  0  0  0  0  0  0  0  0  0  0
   20.1058   20.6112   22.7822 H   0  0  0  0  0  0  0  0  0  0  0  0
   20.9303   19.0427   21.5284 C   0  0  0  0  0  0  0  0  0  0  0  0
   21.1566   18.3678   22.3645 H   0  0  0  0  0  0  0  0  0  0  0  0
   21.8434   19.6290   21.3578 H   0  0  0  0  0  0  0  0  0  0  0  0
   20.6246   18.2170   20.2599 C   0  0  0  0  0  0  0  0  0  0  0  0
   19.7844   17.5308   20.4247 H   0  0  0  0  0  0  0  0  0  0  0  0
   21.4961   17.6137   19.9752 H   0  0  0  0  0  0  0  0  0  0  0  0
   20.3751   18.8722   19.4153 H   0  0  0  0  0  0  0  0  0  0  0  0
  1  2  1  0  0  0  0
  1  3  2  0  0  0  0
  1  4  1  0  0  0  0
  4  5  1  0  0  0  0
  4  6  1  0  0  0  0
  4  7  1  0  0  0  0
  7  8  1  0  0  0  0
  7  9  1  0  0  0  0
  7 10  1  0  0  0  0
 10 11  1  0  0  0  0
 10 12  1  0  0  0  0
 10 13  1  0  0  0  0
 13 14  1  0  0  0  0
 13 15  1  0  0  0  0
 13 16  1  0  0  0  0
 16 17  1  0  0  0  0
 16 18  1  0  0  0  0
 16 19  1  0  0  0  0
 19 20  1  0  0  0  0
 19 21  1  0  0  0  0
 19 22  1  0  0  0  0
M  END
> <VM2 Rank>
70

> <Conf_Id>
370

> <Probability>
0.00

> <Sum Probability>
100.00

> <Delta G>
6.474

> <G>
-10.524

> <E>
-31.657

> <-TS>
21.132

> <U+W>
-49.542

> <U>
12.978

> <W>
-62.519

> <W(PB)>
-64.679

> <W(SA)>
2.160

> <Valence>
10.104

> <Coulomb>
2.676

> <VdW>
0.198

> <VdW6>
-10.984

> <VdW12>
11.182

> <Bond>
0.262

> <Angle>
4.020

> <Pdih>
5.805

> <Idih>
0.017

> <Tether>
0.000

$$$$
VeraChem MOL file


 22 21  0  0  0  0  0  0  0  0999 V2000     
   19.9536   19.0350   25.5921 C   0  0  0  0  0  0  0  0  0  0  0  0
   19.5349   19.9133   26.3204 O   0  5  0  0  0  0  0  0  0  0  0  0
   19.7571   17.8514   25.7859 O   0  0  0  0  0  0  0  0  0  0  0  0
   20.7924   19.4418   24.3837 C   0  0  0  0  0  0  0  0  0  0  0  0
   21.3373   18.5618   24.0249 H   0  0  0  0  0  0  0  0  0  0  0  0
   21.5489   20.1512   24.7388 H   0  0  0  0  0  0  0  0  0  0  0  0
   19.9761   20.0966   23.2348 C   0  0  0  0  0  0  0  0  0  0  0  0
   19.4621   20.9812   23.6354 H   0  0  0  0  0  0  0  0  0  0  0  0
   20.6689   20.4681   22.4708 H   0  0  0  0  0  0  0  0  0  0  0  0
   18.9217   19.1607   22.5877 C   0  0  0  0  0  0  0  0  0  0  0  0
   18.2423   19.7548   21.9617 H   0  0  0  0  0  0  0  0  0  0  0  0
   18.2931   18.7390   23.3839 H   0  0  0  0  0  0  0  0  0  0  0  0
   19.5098   17.9969   21.7461 C   0  0  0  0  0  0  0  0  0  0  0  0
   20.4904   17.6908   22.1302 H   0  0  0  0  0  0  0  0  0  0  0  0
   18.8569   17.1228   21.8745 H   0  0  0  0  0  0  0  0  0  0  0  0
   19.6079   18.2850   20.2276 C   0  0  0  0  0  0  0  0  0  0  0  0
   18.6078   18.5023   19.8279 H   0  0  0  0  0  0  0  0  0  0  0  0
   19.9493   17.3718   19.7211 H   0  0  0  0  0  0  0  0  0  0  0  0
   20.5665   19.4383   19.8656 C   0  0  0  0  0  0  0  0  0  0  0  0
   21.5580   19.2805   20.3097 H   0  0  0  0  0  0  0  0  0  0  0  0
   20.1762   20.4017   20.2161 H   0  0  0  0  0  0  0  0  0  0  0  0
   20.6896   19.5078   18.7771 H   0  0  0  0  0  0  0  0  0  0  0  0
  1  2  1  0  0  0  0
  1  3  2  0  0  0  0
  1  4  1  0  0  0  0
  4  5  1  0  0  0  0
  4  6  1  0  0  0  0
  4  7  1  0  0  0  0
  7  8  1  0  0  0  0
  7  9  1  0  0  0  0
  7 10  1  0  0  0  0
 10 11  1  0  0  0  0
 10 12  1  0  0  0  0
 10 13  1  0  0  0  0
 13 14  1  0  0  0  0
 13 15  1  0  0  0  0
 13 16  1  0  0  0  0
 16 17  1  0  0  0  0
 16 18  1  0  0  0  0
 16 19  1  0  0  0  0
 19 20  1  0  0  0  0
 19 21  1  0  0  0  0
 19 22  1  0  0  0  0
M  END
> <VM2 Rank>
71

> <Conf_Id>
304

> <Probability>
0.00

> <Sum Probability>
100.00

> <Delta G>
6.563

> <G>
-10.435

> <E>
-30.643

> <-TS>
20.208

> <U+W>
-48.528

> <U>
12.987

> <W>
-61.515

> <W(PB)>
-63.718

> <W(SA)>
2.203

> <Valence>
11.113

> <Coulomb>
1.103

> <VdW>
0.770

> <VdW6>
-9.558

> <VdW12>
10.328

> <Bond>
0.268

> <Angle>
3.531

> <Pdih>
7.314

> <Idih>
0.001

> <Tether>
0.000

$$$$
VeraChem MOL file


 22 21  0  0  0  0  0  0  0  0999 V2000     
   19.7444   19.3840   25.3555 C   0  0  0  0  0  0  0  0  0  0  0  0
   20.5170   20.3217   25.3245 O   0  5  0  0  0  0  0  0  0  0  0  0
   19.6165   18.6508   26.3165 O   0  0  0  0  0  0  0  0  0  0  0  0
   18.8654   19.1284   24.1345 C   0  0  0  0  0  0  0  0  0  0  0  0
   18.8839   20.0206   23.4989 H   0  0  0  0  0  0  0  0  0  0  0  0
   17.8344   19.0212   24.4910 H   0  0  0  0  0  0  0  0  0  0  0  0
   19.2625   17.8655   23.3216 C   0  0  0  0  0  0  0  0  0  0  0  0
   19.1974   16.9905   23.9829 H   0  0  0  0  0  0  0  0  0  0  0  0
   18.5289   17.6912   22.5251 H   0  0  0  0  0  0  0  0  0  0  0  0
   20.6864   17.9200   22.7147 C   0  0  0  0  0  0  0  0  0  0  0  0
   20.8919   16.9650   22.2125 H   0  0  0  0  0  0  0  0  0  0  0  0
   21.4155   17.9884   23.5337 H   0  0  0  0  0  0  0  0  0  0  0  0
   20.9581   19.0776   21.7182 C   0  0  0  0  0  0  0  0  0  0  0  0
   20.8320   20.0511   22.2103 H   0  0  0  0  0  0  0  0  0  0  0  0
   22.0213   19.0258   21.4467 H   0  0  0  0  0  0  0  0  0  0  0  0
   20.1340   19.0175   20.4072 C   0  0  0  0  0  0  0  0  0  0  0  0
   19.9059   17.9746   20.1479 H   0  0  0  0  0  0  0  0  0  0  0  0
   20.7557   19.4059   19.5888 H   0  0  0  0  0  0  0  0  0  0  0  0
   18.8357   19.8534   20.4515 C   0  0  0  0  0  0  0  0  0  0  0  0
   18.1323   19.4763   21.2015 H   0  0  0  0  0  0  0  0  0  0  0  0
   18.3293   19.8254   19.4781 H   0  0  0  0  0  0  0  0  0  0  0  0
   19.0541   20.9033   20.6861 H   0  0  0  0  0  0  0  0  0  0  0  0
  1  2  1  0  0  0  0
  1  3  2  0  0  0  0
  1  4  1  0  0  0  0
  4  5  1  0  0  0  0
  4  6  1  0  0  0  0
  4  7  1  0  0  0  0
  7  8  1  0  0  0  0
  7  9  1  0  0  0  0
  7 10  1  0  0  0  0
 10 11  1  0  0  0  0
 10 12  1  0  0  0  0
 10 13  1  0  0  0  0
 13 14  1  0  0  0  0
 13 15  1  0  0  0  0
 13 16  1  0  0  0  0
 16 17  1  0  0  0  0
 16 18  1  0  0  0  0
 16 19  1  0  0  0  0
 19 20  1  0  0  0  0
 19 21  1  0  0  0  0
 19 22  1  0  0  0  0
M  END
> <VM2 Rank>
72

> <Conf_Id>
123

> <Probability>
0.00

> <Sum Probability>
100.00

> <Delta G>
6.718

> <G>
-10.281

> <E>
-30.973

> <-TS>
20.692

> <U+W>
-48.858

> <U>
13.164

> <W>
-62.021

> <W(PB)>
-64.195

> <W(SA)>
2.173

> <Valence>
10.932

> <Coulomb>
1.923

> <VdW>
0.309

> <VdW6>
-10.319

> <VdW12>
10.629

> <Bond>
0.254

> <Angle>
3.841

> <Pdih>
6.835

> <Idih>
0.001

> <Tether>
0.000

$$$$
VeraChem MOL file


 22 21  0  0  0  0  0  0  0  0999 V2000     
   19.7752   18.8134   25.3773 C   0  0  0  0  0  0  0  0  0  0  0  0
   19.5654   19.5999   26.2800 O   0  5  0  0  0  0  0  0  0  0  0  0
   20.6441   17.9646   25.4149 O   0  0  0  0  0  0  0  0  0  0  0  0
   18.8788   18.8792   24.1440 C   0  0  0  0  0  0  0  0  0  0  0  0
   17.8408   18.9019   24.4955 H   0  0  0  0  0  0  0  0  0  0  0  0
   18.9957   17.9482   23.5784 H   0  0  0  0  0  0  0  0  0  0  0  0
   19.1413   20.1116   23.2354 C   0  0  0  0  0  0  0  0  0  0  0  0
   18.3966   20.1447   22.4310 H   0  0  0  0  0  0  0  0  0  0  0  0
   18.9799   21.0225   23.8282 H   0  0  0  0  0  0  0  0  0  0  0  0
   20.5653   20.1641   22.6286 C   0  0  0  0  0  0  0  0  0  0  0  0
   21.2942   20.2373   23.4474 H   0  0  0  0  0  0  0  0  0  0  0  0
   20.6691   21.0945   22.0541 H   0  0  0  0  0  0  0  0  0  0  0  0
   20.9640   18.9697   21.7223 C   0  0  0  0  0  0  0  0  0  0  0  0
   22.0165   19.1145   21.4433 H   0  0  0  0  0  0  0  0  0  0  0  0
   20.9411   18.0288   22.2879 H   0  0  0  0  0  0  0  0  0  0  0  0
   20.1435   18.8406   20.4140 C   0  0  0  0  0  0  0  0  0  0  0  0
   20.8068   18.4597   19.6251 H   0  0  0  0  0  0  0  0  0  0  0  0
   19.8059   19.8301   20.0767 H   0  0  0  0  0  0  0  0  0  0  0  0
   18.9424   17.8760   20.5274 C   0  0  0  0  0  0  0  0  0  0  0  0
   18.4399   17.7750   19.5568 H   0  0  0  0  0  0  0  0  0  0  0  0
   18.1995   18.2316   21.2493 H   0  0  0  0  0  0  0  0  0  0  0  0
   19.2712   16.8766   20.8407 H   0  0  0  0  0  0  0  0  0  0  0  0
  1  2  1  0  0  0  0
  1  3  2  0  0  0  0
  1  4  1  0  0  0  0
  4  5  1  0  0  0  0
  4  6  1  0  0  0  0
  4  7  1  0  0  0  0
  7  8  1  0  0  0  0
  7  9  1  0  0  0  0
  7 10  1  0  0  0  0
 10 11  1  0  0  0  0
 10 12  1  0  0  0  0
 10 13  1  0  0  0  0
 13 14  1  0  0  0  0
 13 15  1  0  0  0  0
 13 16  1  0  0  0  0
 16 17  1  0  0  0  0
 16 18  1  0  0  0  0
 16 19  1  0  0  0  0
 19 20  1  0  0  0  0
 19 21  1  0  0  0  0
 19 22  1  0  0  0  0
M  END
> <VM2 Rank>
73

> <Conf_Id>
506

> <Probability>
0.00

> <Sum Probability>
100.00

> <Delta G>
6.732

> <G>
-10.266

> <E>
-30.958

> <-TS>
20.692

> <U+W>
-48.843

> <U>
13.164

> <W>
-62.007

> <W(PB)>
-64.167

> <W(SA)>
2.160

> <Valence>
10.932

> <Coulomb>
1.923

> <VdW>
0.309

> <VdW6>
-10.319

> <VdW12>
10.629

> <Bond>
0.254

> <Angle>
3.841

> <Pdih>
6.835

> <Idih>
0.001

> <Tether>
0.000

$$$$
VeraChem MOL file


 22 21  0  0  0  0  0  0  0  0999 V2000     
   20.2505   18.9694   25.2646 C   0  0  0  0  0  0  0  0  0  0  0  0
   19.6256   19.1310   26.2946 O   0  5  0  0  0  0  0  0  0  0  0  0
   20.9765   18.0160   25.0629 O   0  0  0  0  0  0  0  0  0  0  0  0
   20.1394   20.0398   24.1818 C   0  0  0  0  0  0  0  0  0  0  0  0
   20.9623   19.9038   23.4732 H   0  0  0  0  0  0  0  0  0  0  0  0
   20.3025   21.0086   24.6681 H   0  0  0  0  0  0  0  0  0  0  0  0
   18.7690   20.0578   23.4500 C   0  0  0  0  0  0  0  0  0  0  0  0
   17.9800   20.1380   24.2106 H   0  0  0  0  0  0  0  0  0  0  0  0
   18.6883   20.9650   22.8363 H   0  0  0  0  0  0  0  0  0  0  0  0
   18.4929   18.8063   22.5758 C   0  0  0  0  0  0  0  0  0  0  0  0
   17.4204   18.5790   22.6449 H   0  0  0  0  0  0  0  0  0  0  0  0
   19.0038   17.9247   22.9847 H   0  0  0  0  0  0  0  0  0  0  0  0
   18.8282   18.9834   21.0714 C   0  0  0  0  0  0  0  0  0  0  0  0
   18.4763   18.0964   20.5273 H   0  0  0  0  0  0  0  0  0  0  0  0
   18.2464   19.8272   20.6764 H   0  0  0  0  0  0  0  0  0  0  0  0
   20.3212   19.2084   20.7344 C   0  0  0  0  0  0  0  0  0  0  0  0
   20.6865   20.1203   21.2232 H   0  0  0  0  0  0  0  0  0  0  0  0
   20.4115   19.3887   19.6545 H   0  0  0  0  0  0  0  0  0  0  0  0
   21.2166   18.0070   21.1084 C   0  0  0  0  0  0  0  0  0  0  0  0
   21.2202   17.8298   22.1913 H   0  0  0  0  0  0  0  0  0  0  0  0
   22.2533   18.1883   20.7968 H   0  0  0  0  0  0  0  0  0  0  0  0
   20.8696   17.0908   20.6136 H   0  0  0  0  0  0  0  0  0  0  0  0
  1  2  1  0  0  0  0
  1  3  2  0  0  0  0
  1  4  1  0  0  0  0
  4  5  1  0  0  0  0
  4  6  1  0  0  0  0
  4  7  1  0  0  0  0
  7  8  1  0  0  0  0
  7  9  1  0  0  0  0
  7 10  1  0  0  0  0
 10 11  1  0  0  0  0
 10 12  1  0  0  0  0
 10 13  1  0  0  0  0
 13 14  1  0  0  0  0
 13 15  1  0  0  0  0
 13 16  1  0  0  0  0
 16 17  1  0  0  0  0
 16 18  1  0  0  0  0
 16 19  1  0  0  0  0
 19 20  1  0  0  0  0
 19 21  1  0  0  0  0
 19 22  1  0  0  0  0
M  END
> <VM2 Rank>
74

> <Conf_Id>
175

> <Probability>
0.00

> <Sum Probability>
100.00

> <Delta G>
7.235

> <G>
-9.764

> <E>
-30.742

> <-TS>
20.978

> <U+W>
-48.627

> <U>
13.492

> <W>
-62.119

> <W(PB)>
-64.294

> <W(SA)>
2.175

> <Valence>
11.097

> <Coulomb>
2.068

> <VdW>
0.328

> <VdW6>
-10.375

> <VdW12>
10.703

> <Bond>
0.258

> <Angle>
3.695

> <Pdih>
7.142

> <Idih>
0.001

> <Tether>
0.000

$$$$
VeraChem MOL file


 22 21  0  0  0  0  0  0  0  0999 V2000     
   20.2137   18.8362   25.1073 C   0  0  0  0  0  0  0  0  0  0  0  0
   20.5292   19.7788   25.8072 O   0  5  0  0  0  0  0  0  0  0  0  0
   20.9504   17.8976   24.8779 O   0  0  0  0  0  0  0  0  0  0  0  0
   18.7947   18.7969   24.5425 C   0  0  0  0  0  0  0  0  0  0  0  0
   18.1138   18.7199   25.3978 H   0  0  0  0  0  0  0  0  0  0  0  0
   18.6668   17.8771   23.9611 H   0  0  0  0  0  0  0  0  0  0  0  0
   18.4055   20.0362   23.6918 C   0  0  0  0  0  0  0  0  0  0  0  0
   17.3394   19.9757   23.4349 H   0  0  0  0  0  0  0  0  0  0  0  0
   18.5169   20.9360   24.3125 H   0  0  0  0  0  0  0  0  0  0  0  0
   19.2318   20.2227   22.3940 C   0  0  0  0  0  0  0  0  0  0  0  0
   20.2977   20.3134   22.6382 H   0  0  0  0  0  0  0  0  0  0  0  0
   18.9452   21.1887   21.9566 H   0  0  0  0  0  0  0  0  0  0  0  0
   18.9944   19.1243   21.3233 C   0  0  0  0  0  0  0  0  0  0  0  0
   18.0082   18.6666   21.4788 H   0  0  0  0  0  0  0  0  0  0  0  0
   18.9471   19.5975   20.3329 H   0  0  0  0  0  0  0  0  0  0  0  0
   20.0744   18.0160   21.2808 C   0  0  0  0  0  0  0  0  0  0  0  0
   19.7116   17.1963   20.6457 H   0  0  0  0  0  0  0  0  0  0  0  0
   20.2259   17.5879   22.2793 H   0  0  0  0  0  0  0  0  0  0  0  0
   21.4259   18.5103   20.7195 C   0  0  0  0  0  0  0  0  0  0  0  0
   22.1371   17.6775   20.6455 H   0  0  0  0  0  0  0  0  0  0  0  0
   21.8754   19.2736   21.3663 H   0  0  0  0  0  0  0  0  0  0  0  0
   21.3024   18.9389   19.7165 H   0  0  0  0  0  0  0  0  0  0  0  0
  1  2  1  0  0  0  0
  1  3  2  0  0  0  0
  1  4  1  0  0  0  0
  4  5  1  0  0  0  0
  4  6  1  0  0  0  0
  4  7  1  0  0  0  0
  7  8  1  0  0  0  0
  7  9  1  0  0  0  0
  7 10  1  0  0  0  0
 10 11  1  0  0  0  0
 10 12  1  0  0  0  0
 10 13  1  0  0  0  0
 13 14  1  0  0  0  0
 13 15  1  0  0  0  0
 13 16  1  0  0  0  0
 16 17  1  0  0  0  0
 16 18  1  0  0  0  0
 16 19  1  0  0  0  0
 19 20  1  0  0  0  0
 19 21  1  0  0  0  0
 19 22  1  0  0  0  0
M  END
> <VM2 Rank>
75

> <Conf_Id>
151

> <Probability>
0.00

> <Sum Probability>
100.00

> <Delta G>
7.341

> <G>
-9.658

> <E>
-30.004

> <-TS>
20.346

> <U+W>
-47.888

> <U>
14.793

> <W>
-62.682

> <W(PB)>
-64.848

> <W(SA)>
2.166

> <Valence>
11.490

> <Coulomb>
2.888

> <VdW>
0.415

> <VdW6>
-10.183

> <VdW12>
10.598

> <Bond>
0.251

> <Angle>
3.561

> <Pdih>
7.672

> <Idih>
0.007

> <Tether>
0.000

$$$$
VeraChem MOL file


 22 21  0  0  0  0  0  0  0  0999 V2000     
   19.9321   19.5143   25.4405 C   0  0  0  0  0  0  0  0  0  0  0  0
   20.7285   20.4243   25.3227 O   0  5  0  0  0  0  0  0  0  0  0  0
   19.6922   18.9624   26.4963 O   0  0  0  0  0  0  0  0  0  0  0  0
   19.2081   19.0235   24.1920 C   0  0  0  0  0  0  0  0  0  0  0  0
   19.0581   19.8827   23.5313 H   0  0  0  0  0  0  0  0  0  0  0  0
   18.2126   18.6756   24.4922 H   0  0  0  0  0  0  0  0  0  0  0  0
   19.9710   17.8854   23.4641 C   0  0  0  0  0  0  0  0  0  0  0  0
   20.9986   18.1975   23.2341 H   0  0  0  0  0  0  0  0  0  0  0  0
   20.0605   17.0417   24.1623 H   0  0  0  0  0  0  0  0  0  0  0  0
   19.2596   17.3912   22.1801 C   0  0  0  0  0  0  0  0  0  0  0  0
   18.1722   17.5145   22.2762 H   0  0  0  0  0  0  0  0  0  0  0  0
   19.4274   16.3084   22.1006 H   0  0  0  0  0  0  0  0  0  0  0  0
   19.7528   18.0301   20.8549 C   0  0  0  0  0  0  0  0  0  0  0  0
   20.8269   17.8414   20.7230 H   0  0  0  0  0  0  0  0  0  0  0  0
   19.2570   17.4955   20.0331 H   0  0  0  0  0  0  0  0  0  0  0  0
   19.4504   19.5390   20.6849 C   0  0  0  0  0  0  0  0  0  0  0  0
   18.5356   19.8092   21.2291 H   0  0  0  0  0  0  0  0  0  0  0  0
   19.2395   19.7350   19.6246 H   0  0  0  0  0  0  0  0  0  0  0  0
   20.6254   20.4487   21.1084 C   0  0  0  0  0  0  0  0  0  0  0  0
   20.3652   21.5049   20.9624 H   0  0  0  0  0  0  0  0  0  0  0  0
   21.5189   20.2367   20.5071 H   0  0  0  0  0  0  0  0  0  0  0  0
   20.8895   20.3126   22.1634 H   0  0  0  0  0  0  0  0  0  0  0  0
  1  2  1  0  0  0  0
  1  3  2  0  0  0  0
  1  4  1  0  0  0  0
  4  5  1  0  0  0  0
  4  6  1  0  0  0  0
  4  7  1  0  0  0  0
  7  8  1  0  0  0  0
  7  9  1  0  0  0  0
  7 10  1  0  0  0  0
 10 11  1  0  0  0  0
 10 12  1  0  0  0  0
 10 13  1  0  0  0  0
 13 14  1  0  0  0  0
 13 15  1  0  0  0  0
 13 16  1  0  0  0  0
 16 17  1  0  0  0  0
 16 18  1  0  0  0  0
 16 19  1  0  0  0  0
 19 20  1  0  0  0  0
 19 21  1  0  0  0  0
 19 22  1  0  0  0  0
M  END
> <VM2 Rank>
76

> <Conf_Id>
562

> <Probability>
0.00

> <Sum Probability>
100.00

> <Delta G>
7.562

> <G>
-9.436

> <E>
-29.904

> <-TS>
20.468

> <U+W>
-47.789

> <U>
13.811

> <W>
-61.600

> <W(PB)>
-63.797

> <W(SA)>
2.197

> <Valence>
12.676

> <Coulomb>
0.620

> <VdW>
0.516

> <VdW6>
-9.538

> <VdW12>
10.054

> <Bond>
0.234

> <Angle>
3.707

> <Pdih>
8.734

> <Idih>
0.001

> <Tether>
0.000

$$$$
VeraChem MOL file


 22 21  0  0  0  0  0  0  0  0999 V2000     
   19.8385   18.7656   25.2431 C   0  0  0  0  0  0  0  0  0  0  0  0
   18.6765   18.6807   25.5891 O   0  5  0  0  0  0  0  0  0  0  0  0
   20.6204   17.8358   25.2790 O   0  0  0  0  0  0  0  0  0  0  0  0
   20.3605   20.1268   24.7931 C   0  0  0  0  0  0  0  0  0  0  0  0
   21.2776   20.3194   25.3621 H   0  0  0  0  0  0  0  0  0  0  0  0
   19.6390   20.8957   25.0946 H   0  0  0  0  0  0  0  0  0  0  0  0
   20.6695   20.2466   23.2746 C   0  0  0  0  0  0  0  0  0  0  0  0
   21.2170   21.1857   23.1182 H   0  0  0  0  0  0  0  0  0  0  0  0
   21.3518   19.4425   22.9714 H   0  0  0  0  0  0  0  0  0  0  0  0
   19.4084   20.2715   22.3717 C   0  0  0  0  0  0  0  0  0  0  0  0
   19.6330   20.8252   21.4500 H   0  0  0  0  0  0  0  0  0  0  0  0
   18.6235   20.8500   22.8778 H   0  0  0  0  0  0  0  0  0  0  0  0
   18.8480   18.8740   21.9968 C   0  0  0  0  0  0  0  0  0  0  0  0
   19.0659   18.1405   22.7825 H   0  0  0  0  0  0  0  0  0  0  0  0
   17.7528   18.9459   21.9530 H   0  0  0  0  0  0  0  0  0  0  0  0
   19.3385   18.3347   20.6304 C   0  0  0  0  0  0  0  0  0  0  0  0
   19.0490   19.0324   19.8326 H   0  0  0  0  0  0  0  0  0  0  0  0
   18.8163   17.3915   20.4190 H   0  0  0  0  0  0  0  0  0  0  0  0
   20.8595   18.0833   20.5661 C   0  0  0  0  0  0  0  0  0  0  0  0
   21.4198   19.0238   20.6395 H   0  0  0  0  0  0  0  0  0  0  0  0
   21.1310   17.6078   19.6149 H   0  0  0  0  0  0  0  0  0  0  0  0
   21.1826   17.4218   21.3807 H   0  0  0  0  0  0  0  0  0  0  0  0
  1  2  1  0  0  0  0
  1  3  2  0  0  0  0
  1  4  1  0  0  0  0
  4  5  1  0  0  0  0
  4  6  1  0  0  0  0
  4  7  1  0  0  0  0
  7  8  1  0  0  0  0
  7  9  1  0  0  0  0
  7 10  1  0  0  0  0
 10 11  1  0  0  0  0
 10 12  1  0  0  0  0
 10 13  1  0  0  0  0
 13 14  1  0  0  0  0
 13 15  1  0  0  0  0
 13 16  1  0  0  0  0
 16 17  1  0  0  0  0
 16 18  1  0  0  0  0
 16 19  1  0  0  0  0
 19 20  1  0  0  0  0
 19 21  1  0  0  0  0
 19 22  1  0  0  0  0
M  END
> <VM2 Rank>
77

> <Conf_Id>
362

> <Probability>
0.00

> <Sum Probability>
100.00

> <Delta G>
8.167

> <G>
-8.831

> <E>
-29.229

> <-TS>
20.398

> <U+W>
-47.114

> <U>
15.358

> <W>
-62.471

> <W(PB)>
-64.649

> <W(SA)>
2.177

> <Valence>
12.193

> <Coulomb>
2.677

> <VdW>
0.488

> <VdW6>
-10.169

> <VdW12>
10.657

> <Bond>
0.265

> <Angle>
3.626

> <Pdih>
8.298

> <Idih>
0.004

> <Tether>
0.000

$$$$
VeraChem MOL file


 22 21  0  0  0  0  0  0  0  0999 V2000     
   20.1640   19.0636   25.2343 C   0  0  0  0  0  0  0  0  0  0  0  0
   20.3612   20.2228   25.5418 O   0  5  0  0  0  0  0  0  0  0  0  0
   21.0223   18.2037   25.2680 O   0  0  0  0  0  0  0  0  0  0  0  0
   18.7492   18.6519   24.8384 C   0  0  0  0  0  0  0  0  0  0  0  0
   18.0561   19.4468   25.1392 H   0  0  0  0  0  0  0  0  0  0  0  0
   18.4944   17.7716   25.4401 H   0  0  0  0  0  0  0  0  0  0  0  0
   18.5566   18.3127   23.3339 C   0  0  0  0  0  0  0  0  0  0  0  0
   19.2879   17.5535   23.0292 H   0  0  0  0  0  0  0  0  0  0  0  0
   17.5686   17.8468   23.2203 H   0  0  0  0  0  0  0  0  0  0  0  0
   18.6154   19.5456   22.3942 C   0  0  0  0  0  0  0  0  0  0  0  0
   18.1242   20.3926   22.8923 H   0  0  0  0  0  0  0  0  0  0  0  0
   18.0160   19.3457   21.4956 H   0  0  0  0  0  0  0  0  0  0  0  0
   20.0448   19.9685   21.9634 C   0  0  0  0  0  0  0  0  0  0  0  0
   20.0687   21.0641   21.8887 H   0  0  0  0  0  0  0  0  0  0  0  0
   20.7799   19.7075   22.7344 H   0  0  0  0  0  0  0  0  0  0  0  0
   20.4964   19.3944   20.5978 C   0  0  0  0  0  0  0  0  0  0  0  0
   21.4751   19.8243   20.3442 H   0  0  0  0  0  0  0  0  0  0  0  0
   19.8029   19.7231   19.8116 H   0  0  0  0  0  0  0  0  0  0  0  0
   20.6102   17.8558   20.5723 C   0  0  0  0  0  0  0  0  0  0  0  0
   21.0301   17.5169   19.6165 H   0  0  0  0  0  0  0  0  0  0  0  0
   19.6265   17.3840   20.6892 H   0  0  0  0  0  0  0  0  0  0  0  0
   21.2654   17.4975   21.3770 H   0  0  0  0  0  0  0  0  0  0  0  0
  1  2  1  0  0  0  0
  1  3  2  0  0  0  0
  1  4  1  0  0  0  0
  4  5  1  0  0  0  0
  4  6  1  0  0  0  0
  4  7  1  0  0  0  0
  7  8  1  0  0  0  0
  7  9  1  0  0  0  0
  7 10  1  0  0  0  0
 10 11  1  0  0  0  0
 10 12  1  0  0  0  0
 10 13  1  0  0  0  0
 13 14  1  0  0  0  0
 13 15  1  0  0  0  0
 13 16  1  0  0  0  0
 16 17  1  0  0  0  0
 16 18  1  0  0  0  0
 16 19  1  0  0  0  0
 19 20  1  0  0  0  0
 19 21  1  0  0  0  0
 19 22  1  0  0  0  0
M  END
> <VM2 Rank>
78

> <Conf_Id>
496

> <Probability>
0.00

> <Sum Probability>
100.00

> <Delta G>
8.246

> <G>
-8.752

> <E>
-29.150

> <-TS>
20.398

> <U+W>
-47.035

> <U>
15.358

> <W>
-62.393

> <W(PB)>
-64.565

> <W(SA)>
2.172

> <Valence>
12.193

> <Coulomb>
2.677

> <VdW>
0.488

> <VdW6>
-10.169

> <VdW12>
10.657

> <Bond>
0.265

> <Angle>
3.624

> <Pdih>
8.299

> <Idih>
0.005

> <Tether>
0.000

$$$$
VeraChem MOL file


 22 21  0  0  0  0  0  0  0  0999 V2000     
   20.3261   18.8447   24.8916 C   0  0  0  0  0  0  0  0  0  0  0  0
   20.8094   19.9144   25.2083 O   0  5  0  0  0  0  0  0  0  0  0  0
   20.9725   17.8187   24.8121 O   0  0  0  0  0  0  0  0  0  0  0  0
   18.8106   18.7496   24.7075 C   0  0  0  0  0  0  0  0  0  0  0  0
   18.3823   18.7612   25.7162 H   0  0  0  0  0  0  0  0  0  0  0  0
   18.5640   17.7727   24.2749 H   0  0  0  0  0  0  0  0  0  0  0  0
   18.1578   19.8876   23.8719 C   0  0  0  0  0  0  0  0  0  0  0  0
   17.1016   19.9576   24.1650 H   0  0  0  0  0  0  0  0  0  0  0  0
   18.6054   20.8545   24.1403 H   0  0  0  0  0  0  0  0  0  0  0  0
   18.2028   19.6936   22.3345 C   0  0  0  0  0  0  0  0  0  0  0  0
   17.6314   20.5156   21.8820 H   0  0  0  0  0  0  0  0  0  0  0  0
   17.6690   18.7746   22.0562 H   0  0  0  0  0  0  0  0  0  0  0  0
   19.6226   19.7009   21.7159 C   0  0  0  0  0  0  0  0  0  0  0  0
   19.5964   20.2801   20.7829 H   0  0  0  0  0  0  0  0  0  0  0  0
   20.3240   20.2251   22.3795 H   0  0  0  0  0  0  0  0  0  0  0  0
   20.1446   18.2837   21.3897 C   0  0  0  0  0  0  0  0  0  0  0  0
   19.4736   17.8014   20.6657 H   0  0  0  0  0  0  0  0  0  0  0  0
   20.1363   17.6587   22.2912 H   0  0  0  0  0  0  0  0  0  0  0  0
   21.5735   18.3257   20.8124 C   0  0  0  0  0  0  0  0  0  0  0  0
   22.2724   18.7672   21.5352 H   0  0  0  0  0  0  0  0  0  0  0  0
   21.6091   18.9211   19.8908 H   0  0  0  0  0  0  0  0  0  0  0  0
   21.9253   17.3129   20.5773 H   0  0  0  0  0  0  0  0  0  0  0  0
  1  2  1  0  0  0  0
  1  3  2  0  0  0  0
  1  4  1  0  0  0  0
  4  5  1  0  0  0  0
  4  6  1  0  0  0  0
  4  7  1  0  0  0  0
  7  8  1  0  0  0  0
  7  9  1  0  0  0  0
  7 10  1  0  0  0  0
 10 11  1  0  0  0  0
 10 12  1  0  0  0  0
 10 13  1  0  0  0  0
 13 14  1  0  0  0  0
 13 15  1  0  0  0  0
 13 16  1  0  0  0  0
 16 17  1  0  0  0  0
 16 18  1  0  0  0  0
 16 19  1  0  0  0  0
 19 20  1  0  0  0  0
 19 21  1  0  0  0  0
 19 22  1  0  0  0  0
M  END
> <VM2 Rank>
79

> <Conf_Id>
195

> <Probability>
0.00

> <Sum Probability>
100.00

> <Delta G>
8.528

> <G>
-8.471

> <E>
-29.145

> <-TS>
20.675

> <U+W>
-47.030

> <U>
15.739

> <W>
-62.769

> <W(PB)>
-64.934

> <W(SA)>
2.164

> <Valence>
12.167

> <Coulomb>
3.363

> <VdW>
0.210

> <VdW6>
-10.463

> <VdW12>
10.673

> <Bond>
0.233

> <Angle>
3.822

> <Pdih>
8.088

> <Idih>
0.023

> <Tether>
0.000

$$$$
VeraChem MOL file


 22 21  0  0  0  0  0  0  0  0999 V2000     
   20.3424   19.3265   24.8677 C   0  0  0  0  0  0  0  0  0  0  0  0
   20.7535   18.2630   25.2899 O   0  5  0  0  0  0  0  0  0  0  0  0
   21.0564   20.2937   24.6900 O   0  0  0  0  0  0  0  0  0  0  0  0
   18.8363   19.5051   24.6702 C   0  0  0  0  0  0  0  0  0  0  0  0
   18.6547   20.4492   24.1428 H   0  0  0  0  0  0  0  0  0  0  0  0
   18.4116   19.6218   25.6738 H   0  0  0  0  0  0  0  0  0  0  0  0
   18.1052   18.3372   23.9485 C   0  0  0  0  0  0  0  0  0  0  0  0
   18.4874   17.3733   24.3122 H   0  0  0  0  0  0  0  0  0  0  0  0
   17.0477   18.3678   24.2436 H   0  0  0  0  0  0  0  0  0  0  0  0
   18.1581   18.3754   22.3996 C   0  0  0  0  0  0  0  0  0  0  0  0
   17.6867   19.2966   22.0305 H   0  0  0  0  0  0  0  0  0  0  0  0
   17.5309   17.5534   22.0284 H   0  0  0  0  0  0  0  0  0  0  0  0
   19.5721   18.2113   21.7895 C   0  0  0  0  0  0  0  0  0  0  0  0
   20.2386   17.7087   22.5037 H   0  0  0  0  0  0  0  0  0  0  0  0
   19.5036   17.5462   20.9178 H   0  0  0  0  0  0  0  0  0  0  0  0
   20.1876   19.5509   21.3271 C   0  0  0  0  0  0  0  0  0  0  0  0
   20.2247   20.2607   22.1628 H   0  0  0  0  0  0  0  0  0  0  0  0
   19.5484   20.0040   20.5570 H   0  0  0  0  0  0  0  0  0  0  0  0
   21.6085   19.3558   20.7615 C   0  0  0  0  0  0  0  0  0  0  0  0
   22.2783   18.9412   21.5265 H   0  0  0  0  0  0  0  0  0  0  0  0
   22.0272   20.3145   20.4291 H   0  0  0  0  0  0  0  0  0  0  0  0
   21.6005   18.6716   19.9030 H   0  0  0  0  0  0  0  0  0  0  0  0
  1  2  1  0  0  0  0
  1  3  2  0  0  0  0
  1  4  1  0  0  0  0
  4  5  1  0  0  0  0
  4  6  1  0  0  0  0
  4  7  1  0  0  0  0
  7  8  1  0  0  0  0
  7  9  1  0  0  0  0
  7 10  1  0  0  0  0
 10 11  1  0  0  0  0
 10 12  1  0  0  0  0
 10 13  1  0  0  0  0
 13 14  1  0  0  0  0
 13 15  1  0  0  0  0
 13 16  1  0  0  0  0
 16 17  1  0  0  0  0
 16 18  1  0  0  0  0
 16 19  1  0  0  0  0
 19 20  1  0  0  0  0
 19 21  1  0  0  0  0
 19 22  1  0  0  0  0
M  END
> <VM2 Rank>
80

> <Conf_Id>
257

> <Probability>
0.00

> <Sum Probability>
100.00

> <Delta G>
8.583

> <G>
-8.416

> <E>
-29.090

> <-TS>
20.675

> <U+W>
-46.975

> <U>
15.738

> <W>
-62.713

> <W(PB)>
-64.888

> <W(SA)>
2.174

> <Valence>
12.167

> <Coulomb>
3.362

> <VdW>
0.210

> <VdW6>
-10.463

> <VdW12>
10.673

> <Bond>
0.233

> <Angle>
3.823

> <Pdih>
8.088

> <Idih>
0.022

> <Tether>
0.000

$$$$
VeraChem MOL file


 22 21  0  0  0  0  0  0  0  0999 V2000     
   19.7745   19.5412   25.0293 C   0  0  0  0  0  0  0  0  0  0  0  0
   20.0412   20.7182   24.8869 O   0  5  0  0  0  0  0  0  0  0  0  0
   18.7593   19.1483   25.5708 O   0  0  0  0  0  0  0  0  0  0  0  0
   20.8237   18.5121   24.6069 C   0  0  0  0  0  0  0  0  0  0  0  0
   21.2865   18.1527   25.5331 H   0  0  0  0  0  0  0  0  0  0  0  0
   21.6131   19.0193   24.0392 H   0  0  0  0  0  0  0  0  0  0  0  0
   20.2860   17.2915   23.8067 C   0  0  0  0  0  0  0  0  0  0  0  0
   21.0002   16.4662   23.9295 H   0  0  0  0  0  0  0  0  0  0  0  0
   19.3437   16.9385   24.2482 H   0  0  0  0  0  0  0  0  0  0  0  0
   20.1023   17.5277   22.2856 C   0  0  0  0  0  0  0  0  0  0  0  0
   19.8206   16.5674   21.8326 H   0  0  0  0  0  0  0  0  0  0  0  0
   21.0669   17.7948   21.8357 H   0  0  0  0  0  0  0  0  0  0  0  0
   19.0143   18.5691   21.9164 C   0  0  0  0  0  0  0  0  0  0  0  0
   18.4153   18.1822   21.0808 H   0  0  0  0  0  0  0  0  0  0  0  0
   18.3120   18.6832   22.7532 H   0  0  0  0  0  0  0  0  0  0  0  0
   19.5758   19.9550   21.5173 C   0  0  0  0  0  0  0  0  0  0  0  0
   20.2936   20.3051   22.2700 H   0  0  0  0  0  0  0  0  0  0  0  0
   18.7524   20.6821   21.5141 H   0  0  0  0  0  0  0  0  0  0  0  0
   20.2428   19.9559   20.1240 C   0  0  0  0  0  0  0  0  0  0  0  0
   21.1135   19.2894   20.0930 H   0  0  0  0  0  0  0  0  0  0  0  0
   20.5857   20.9656   19.8638 H   0  0  0  0  0  0  0  0  0  0  0  0
   19.5353   19.6305   19.3504 H   0  0  0  0  0  0  0  0  0  0  0  0
  1  2  1  0  0  0  0
  1  3  2  0  0  0  0
  1  4  1  0  0  0  0
  4  5  1  0  0  0  0
  4  6  1  0  0  0  0
  4  7  1  0  0  0  0
  7  8  1  0  0  0  0
  7  9  1  0  0  0  0
  7 10  1  0  0  0  0
 10 11  1  0  0  0  0
 10 12  1  0  0  0  0
 10 13  1  0  0  0  0
 13 14  1  0  0  0  0
 13 15  1  0  0  0  0
 13 16  1  0  0  0  0
 16 17  1  0  0  0  0
 16 18  1  0  0  0  0
 16 19  1  0  0  0  0
 19 20  1  0  0  0  0
 19 21  1  0  0  0  0
 19 22  1  0  0  0  0
M  END
> <VM2 Rank>
81

> <Conf_Id>
553

> <Probability>
0.00

> <Sum Probability>
100.00

> <Delta G>
8.947

> <G>
-8.052

> <E>
-28.785

> <-TS>
20.734

> <U+W>
-46.670

> <U>
15.751

> <W>
-62.421

> <W(PB)>
-64.591

> <W(SA)>
2.170

> <Valence>
12.808

> <Coulomb>
2.442

> <VdW>
0.501

> <VdW6>
-10.774

> <VdW12>
11.274

> <Bond>
0.268

> <Angle>
3.894

> <Pdih>
8.628

> <Idih>
0.017

> <Tether>
0.000

$$$$
